1



                                 *********************************************

                                    NUMERICAL ELECTROMAGNETICS CODE (NEC-2D)

                                 *********************************************




                                     - - - - COMMENTS - - - -


                          Dipole in free space, converted with 4nec2 on 29-Mar-06 22:08              
                          	Dipole1                                                                   
                          This is a plain dipole in free space, about the simplest                   
                          antenna you're likely to model.                                            
                          The frequency is 299.7+ MHz, at which a wavelength is one                  
                          meter. The antenna dimensions, in meters, are therefore                    
                          also the dimensions in wavelengths. Note that this antenna,                
                          exactly a half wavelength long, is greater than a resonant                 
                          length, as indicated by the positive feedpoint reactance.                  
                          A resonant "half-wave" antenna is somewhat shorter than 0.5                
                          wavelength, the amount depending on its diameter.                          
                                                                                                     




                                 - - - STRUCTURE SPECIFICATION - - -

                                     COORDINATES MUST BE INPUT IN
                                     METERS OR BE SCALED TO METERS
                                     BEFORE STRUCTURE INPUT IS ENDED


  WIRE                                                                               NO. OF    FIRST  LAST     TAG
  NO.        X1         Y1         Z1          X2         Y2         Z2      RADIUS   SEG.     SEG.   SEG.     NO.
     1    0.00000   -0.25000    0.00000     0.00000    0.25000    0.00000    0.00050     11        1    11       1
     2   -0.00051    0.00000 9901.00000     0.00051    0.00000 9901.00000    0.00003      1       12    12    9901

   TOTAL SEGMENTS USED=   12     NO. SEG. IN A SYMMETRIC CELL=   12     SYMMETRY FLAG=  0


         - MULTIPLE WIRE JUNCTIONS -
 JUNCTION    SEGMENTS  (- FOR END 1, + FOR END 2)
  NONE




                                 - - - - SEGMENTATION DATA - - - -

                                        COORDINATES IN METERS

                         I+ AND I- INDICATE THE SEGMENTS BEFORE AND AFTER I


  SEG.   COORDINATES OF SEG. CENTER     SEG.     ORIENTATION ANGLES    WIRE    CONNECTION DATA   TAG
  NO.       X         Y         Z       LENGTH     ALPHA     BETA      RADIUS    I-   I    I+    NO.
     1   0.00000  -0.22727   0.00000   0.04545    0.00000  90.00000   0.00050     0    1    2      1
     2   0.00000  -0.18182   0.00000   0.04545    0.00000  90.00000   0.00050     1    2    3      1
     3   0.00000  -0.13636   0.00000   0.04545    0.00000  90.00000   0.00050     2    3    4      1
     4   0.00000  -0.09091   0.00000   0.04545    0.00000  90.00000   0.00050     3    4    5      1
     5   0.00000  -0.04545   0.00000   0.04545    0.00000  90.00000   0.00050     4    5    6      1
     6   0.00000   0.00000   0.00000   0.04545    0.00000  90.00000   0.00050     5    6    7      1
     7   0.00000   0.04545   0.00000   0.04545    0.00000  90.00000   0.00050     6    7    8      1
     8   0.00000   0.09091   0.00000   0.04545    0.00000  90.00000   0.00050     7    8    9      1
     9   0.00000   0.13636   0.00000   0.04545    0.00000  90.00000   0.00050     8    9   10      1
    10   0.00000   0.18182   0.00000   0.04545    0.00000  90.00000   0.00050     9   10   11      1
    11   0.00000   0.22727   0.00000   0.04545    0.00000  90.00000   0.00050    10   11    0      1
    12   0.00000   0.000009901.00000   0.00102    0.00000   0.00000   0.00003     0   12    0   9901






 ***** DATA CARD NO.  1   EX   0  9901     1     0  0.00000E+00  1.00000E+00  0.00000E+00  0.00000E+00  0.00000E+00  0.00000E+00
 ***** DATA CARD NO.  2   GN  -1     0     0     0  0.00000E+00  0.00000E+00  0.00000E+00  0.00000E+00  0.00000E+00  0.00000E+00
 ***** DATA CARD NO.  3   FR   0     1     0     0  2.99790E+02  0.00000E+00  0.00000E+00  0.00000E+00  0.00000E+00  0.00000E+00
 ***** DATA CARD NO.  4   NT ***     1     1     6  0.00000E+00  0.00000E+00  0.00000E+00  1.00000E+00  0.00000E+00  0.00000E+00
 ***** DATA CARD NO.  5   RP   0    37    73  1003 -1.80000E+02  0.00000E+00  5.00000E+00  5.00000E+00  0.00000E+00  0.00000E+00




                                 - - - - - - FREQUENCY - - - - - -

                                    FREQUENCY= 2.9979E+02 MHZ
                                    WAVELENGTH= 1.0000E+00 METERS




                    APPROXIMATE INTEGRATION EMPLOYED FOR SEGMENTS MORE THAN   1.000 WAVELENGTHS APART



                               - - - STRUCTURE IMPEDANCE LOADING - - -

                                   THIS STRUCTURE IS NOT LOADED



                                  - - - ANTENNA ENVIRONMENT - - -

                                            FREE SPACE



                                - - - MATRIX TIMING - - -

                        FILL=    0.000 SEC.,  FACTOR=    0.000 SEC.



                                            - - - NETWORK DATA - - -

      - FROM -    - TO -                          -  -  ADMITTANCE MATRIX ELEMENTS (MHOS)  -  -
      TAG  SEG.   TAG  SEG.             (ONE,ONE)                   (ONE,TWO)                   (TWO,TWO)
      NO.   NO.   NO.   NO.        REAL          IMAG.         REAL          IMAG.         REAL          IMAG.
     9901    12     1     6     0.0000E+00    0.0000E+00    0.0000E+00    1.0000E+00    0.0000E+00    0.0000E+00           



                           - - - STRUCTURE EXCITATION DATA AT NETWORK CONNECTION POINTS - - -

   TAG   SEG.    VOLTAGE (VOLTS)         CURRENT (AMPS)         IMPEDANCE (OHMS)        ADMITTANCE (MHOS)      POWER
   NO.   NO.    REAL        IMAG.       REAL        IMAG.       REAL        IMAG.       REAL        IMAG.     (WATTS)
     1     6 8.17474E+01 4.59947E+01 1.00000E+00-8.88208E-16 8.17474E+01 4.59947E+01 9.29143E-03-5.22777E-03 4.08737E+01
  9901    12 0.00000E+00 1.00000E+00-5.16603E-06 1.49532E-14 5.60298E-04-1.93572E+05 1.49532E-14 5.16603E-06 7.47659E-15



                                          - - - ANTENNA INPUT PARAMETERS - - -

   TAG   SEG.    VOLTAGE (VOLTS)         CURRENT (AMPS)         IMPEDANCE (OHMS)        ADMITTANCE (MHOS)      POWER
   NO.   NO.    REAL        IMAG.       REAL        IMAG.       REAL        IMAG.       REAL        IMAG.     (WATTS)
  9901    12 0.00000E+00 1.00000E+00-4.59947E+01 8.17474E+01 9.29143E-03-5.22777E-03 8.17474E+01 4.59947E+01 4.08737E+01



                             - - - CURRENTS AND LOCATION - - -

                                 DISTANCES IN WAVELENGTHS


  SEG.  TAG    COORD. OF SEG. CENTER     SEG.            - - - CURRENT (AMPS) - - -
  NO.   NO.     X        Y        Z      LENGTH     REAL        IMAG.       MAG.        PHASE
     1    1   0.0000  -0.2273   0.0000  0.04545   1.8018E-01 -1.9084E-02  1.8119E-01   -6.046
     2    1   0.0000  -0.1818   0.0000  0.04545   4.7278E-01 -4.3281E-02  4.7475E-01   -5.231
     3    1   0.0000  -0.1364   0.0000  0.04545   7.0765E-01 -5.3010E-02  7.0963E-01   -4.284
     4    1   0.0000  -0.0909   0.0000  0.04545   8.7987E-01 -4.8261E-02  8.8119E-01   -3.140
     5    1   0.0000  -0.0455   0.0000  0.04545   9.7810E-01 -2.7660E-02  9.7849E-01   -1.620
     6    1   0.0000   0.0000   0.0000  0.04545   1.0000E+00 -8.8821E-16  1.0000E+00    0.000
     7    1   0.0000   0.0455   0.0000  0.04545   9.7810E-01 -2.7660E-02  9.7849E-01   -1.620
     8    1   0.0000   0.0909   0.0000  0.04545   8.7987E-01 -4.8261E-02  8.8119E-01   -3.140
     9    1   0.0000   0.1364   0.0000  0.04545   7.0765E-01 -5.3010E-02  7.0963E-01   -4.284
    10    1   0.0000   0.1818   0.0000  0.04545   4.7278E-01 -4.3281E-02  4.7475E-01   -5.231
    11    1   0.0000   0.2273   0.0000  0.04545   1.8018E-01 -1.9084E-02  1.8119E-01   -6.046
    12 9901   0.0000   0.00009900.6701  0.00102  -5.1660E-06  1.4953E-14  5.1660E-06  180.000



                                        - - - POWER BUDGET - - -

                                           INPUT POWER   = 4.0874E+01 WATTS
                                           RADIATED POWER= 4.0874E+01 WATTS
                                           STRUCTURE LOSS= 0.0000E+00 WATTS
                                           NETWORK LOSS  = 1.4211E-14 WATTS
                                           EFFICIENCY    = 100.00 PERCENT



                                                - - - RADIATION PATTERNS - - -

  - - ANGLES - -           - POWER GAINS -       - - - POLARIZATION - - -    - - - E(THETA) - - -    - - - E(PHI) - - -
  THETA     PHI        VERT.   HOR.    TOTAL      AXIAL     TILT   SENSE     MAGNITUDE    PHASE      MAGNITUDE    PHASE 
 DEGREES  DEGREES       DB      DB      DB        RATIO     DEG.              VOLTS/M    DEGREES      VOLTS/M    DEGREES
 -180.00     0.00    -157.28    2.16    2.16    0.00000   -90.00  LINEAR    6.77465E-07    28.75    6.34887E+01   -92.93
 -175.00     0.00    -157.31    2.16    2.16    0.00000    90.00  LINEAR    6.74887E-07   -88.24    6.34887E+01   -92.93
 -170.00     0.00    -157.41    2.16    2.16    0.00000    90.00  LINEAR    6.67172E-07   177.58    6.34887E+01   -92.93
 -165.00     0.00    -157.58    2.16    2.16    0.00000   -90.00  LINEAR    6.54381E-07   157.32    6.34887E+01   -92.93
 -160.00     0.00    -157.82    2.16    2.16    0.00000   -90.00  LINEAR    6.36608E-07    58.79    6.34887E+01   -92.93
 -155.00     0.00    -158.13    2.16    2.16    0.00000    90.00  LINEAR    6.13991E-07  -109.60    6.34887E+01   -92.93
 -150.00     0.00    -158.52    2.16    2.16    0.00000    90.00  LINEAR    5.86701E-07  -173.47    6.34887E+01   -92.93
 -145.00     0.00    -159.01    2.16    2.16    0.00000    90.00  LINEAR    5.54946E-07  -145.51    6.34887E+01   -92.93
 -140.00     0.00    -159.59    2.16    2.16    0.00000   -90.00  LINEAR    5.18968E-07   142.79    6.34887E+01   -92.93
 -135.00     0.00    -160.29    2.16    2.16    0.00000    90.00  LINEAR    4.79040E-07   -29.16    6.34887E+01   -92.93
 -130.00     0.00    -161.11    2.16    2.16    0.00000    90.00  LINEAR    4.35466E-07  -100.12    6.34887E+01   -92.93
 -125.00     0.00    -162.10    2.16    2.16    0.00000    90.00  LINEAR    3.88577E-07   -14.80    6.34887E+01   -92.93
 -120.00     0.00    -163.30    2.16    2.16    0.00000   -90.00  LINEAR    3.38732E-07   149.37    6.34887E+01   -92.93
 -115.00     0.00    -164.76    2.16    2.16    0.00000    90.00  LINEAR    2.86309E-07  -163.44    6.34887E+01   -92.93
 -110.00     0.00    -166.59    2.16    2.16    0.00000    90.00  LINEAR    2.31706E-07  -172.30    6.34887E+01   -92.93
 -105.00     0.00    -169.02    2.16    2.16    0.00000   -90.00  LINEAR    1.75341E-07    96.48    6.34887E+01   -92.93
 -100.00     0.00    -172.48    2.16    2.16    0.00000    90.00  LINEAR    1.17640E-07  -174.00    6.34887E+01   -92.93
  -95.00     0.00    -178.47    2.16    2.16    0.00000    90.00  LINEAR    5.90449E-08   -54.09    6.34887E+01   -92.93
  -90.00     0.00    -999.99    2.16    2.16    0.00000    90.00  LINEAR    3.45738E-18   -90.00    6.34887E+01   -92.93
  -85.00     0.00    -178.47    2.16    2.16    0.00000   -90.00  LINEAR    5.90449E-08    54.09    6.34887E+01   -92.93
  -80.00     0.00    -172.48    2.16    2.16    0.00000   -90.00  LINEAR    1.17640E-07   174.00    6.34887E+01   -92.93
  -75.00     0.00    -169.02    2.16    2.16    0.00000    90.00  LINEAR    1.75341E-07   -96.48    6.34887E+01   -92.93
  -70.00     0.00    -166.59    2.16    2.16    0.00000   -90.00  LINEAR    2.31706E-07   172.30    6.34887E+01   -92.93
  -65.00     0.00    -164.76    2.16    2.16    0.00000   -90.00  LINEAR    2.86309E-07   163.44    6.34887E+01   -92.93
  -60.00     0.00    -163.30    2.16    2.16    0.00000    90.00  LINEAR    3.38732E-07  -149.37    6.34887E+01   -92.93
  -55.00     0.00    -162.10    2.16    2.16    0.00000   -90.00  LINEAR    3.88577E-07    14.80    6.34887E+01   -92.93
  -50.00     0.00    -161.11    2.16    2.16    0.00000   -90.00  LINEAR    4.35466E-07   100.12    6.34887E+01   -92.93
  -45.00     0.00    -160.29    2.16    2.16    0.00000   -90.00  LINEAR    4.79040E-07    29.16    6.34887E+01   -92.93
  -40.00     0.00    -159.59    2.16    2.16    0.00000    90.00  LINEAR    5.18968E-07  -142.79    6.34887E+01   -92.93
  -35.00     0.00    -159.01    2.16    2.16    0.00000   -90.00  LINEAR    5.54946E-07   145.51    6.34887E+01   -92.93
  -30.00     0.00    -158.52    2.16    2.16    0.00000   -90.00  LINEAR    5.86701E-07   173.47    6.34887E+01   -92.93
  -25.00     0.00    -158.13    2.16    2.16    0.00000   -90.00  LINEAR    6.13991E-07   109.60    6.34887E+01   -92.93
  -20.00     0.00    -157.82    2.16    2.16    0.00000    90.00  LINEAR    6.36608E-07   -58.79    6.34887E+01   -92.93
  -15.00     0.00    -157.58    2.16    2.16    0.00000    90.00  LINEAR    6.54381E-07  -157.32    6.34887E+01   -92.93
  -10.00     0.00    -157.41    2.16    2.16    0.00000    90.00  LINEAR    6.67172E-07  -177.58    6.34887E+01   -92.93
   -5.00     0.00    -157.31    2.16    2.16    0.00000   -90.00  LINEAR    6.74887E-07    88.24    6.34887E+01   -92.93
    0.00     0.00    -157.28    2.16    2.16    0.00000    90.00  LINEAR    6.77465E-07   -28.75    6.34887E+01   -92.93
 -180.00     5.00     -19.03    2.13    2.16    0.00000   -85.00  LINEAR    5.53341E+00    87.07    6.32471E+01   -92.93
 -175.00     5.00     -19.07    2.13    2.16    0.00000   -85.02  LINEAR    5.51227E+00    87.07    6.32462E+01   -92.93
 -170.00     5.00     -19.17    2.13    2.16    0.00000   -85.08  LINEAR    5.44903E+00    87.07    6.32435E+01   -92.93
 -165.00     5.00     -19.34    2.13    2.16    0.00000   -85.17  LINEAR    5.34419E+00    87.07    6.32392E+01   -92.93
 -160.00     5.00     -19.58    2.13    2.16    0.00000   -85.30  LINEAR    5.19856E+00    87.07    6.32332E+01   -92.93
 -155.00     5.00     -19.89    2.12    2.15    0.00000   -85.47  LINEAR    5.01328E+00    87.07    6.32259E+01   -92.93
 -150.00     5.00     -20.29    2.12    2.15    0.00000   -85.67  LINEAR    4.78982E+00    87.07    6.32174E+01   -92.93
 -145.00     5.00     -20.77    2.12    2.14    0.00000   -85.90  LINEAR    4.52990E+00    87.07    6.32080E+01   -92.93
 -140.00     5.00     -21.35    2.12    2.14    0.00000   -86.17  LINEAR    4.23554E+00    87.07    6.31980E+01   -92.93
 -135.00     5.00     -22.05    2.12    2.14    0.00000   -86.46  LINEAR    3.90903E+00    87.07    6.31876E+01   -92.93
 -130.00     5.00     -22.88    2.12    2.13    0.00000   -86.78  LINEAR    3.55288E+00    87.07    6.31773E+01   -92.93
 -125.00     5.00     -23.87    2.12    2.13    0.00000   -87.13  LINEAR    3.16983E+00    87.07    6.31673E+01   -92.93
 -120.00     5.00     -25.07    2.12    2.12    0.00000   -87.50  LINEAR    2.76280E+00    87.07    6.31579E+01   -92.93
 -115.00     5.00     -26.53    2.11    2.12    0.00000   -87.88  LINEAR    2.33491E+00    87.07    6.31494E+01   -92.93
 -110.00     5.00     -28.37    2.11    2.12    0.00000   -88.29  LINEAR    1.88939E+00    87.07    6.31421E+01   -92.93
 -105.00     5.00     -30.79    2.11    2.11    0.00000   -88.70  LINEAR    1.42964E+00    87.07    6.31361E+01   -92.93
 -100.00     5.00     -34.26    2.11    2.11    0.00000   -89.13  LINEAR    9.59113E-01    87.07    6.31318E+01   -92.93
  -95.00     5.00     -40.24    2.11    2.11    0.00000   -89.56  LINEAR    4.81368E-01    87.07    6.31291E+01   -92.93
  -90.00     5.00    -999.99    2.11    2.11    0.00000   -90.00  LINEAR    2.81861E-11    87.07    6.31282E+01   -92.93
  -85.00     5.00     -40.24    2.11    2.11    0.00000    89.56  LINEAR    4.81368E-01   -92.93    6.31291E+01   -92.93
  -80.00     5.00     -34.26    2.11    2.11    0.00000    89.13  LINEAR    9.59113E-01   -92.93    6.31318E+01   -92.93
  -75.00     5.00     -30.79    2.11    2.11    0.00000    88.70  LINEAR    1.42964E+00   -92.93    6.31361E+01   -92.93
  -70.00     5.00     -28.37    2.11    2.12    0.00000    88.29  LINEAR    1.88939E+00   -92.93    6.31421E+01   -92.93
  -65.00     5.00     -26.53    2.11    2.12    0.00000    87.88  LINEAR    2.33491E+00   -92.93    6.31494E+01   -92.93
  -60.00     5.00     -25.07    2.12    2.12    0.00000    87.50  LINEAR    2.76280E+00   -92.93    6.31579E+01   -92.93
  -55.00     5.00     -23.87    2.12    2.13    0.00000    87.13  LINEAR    3.16983E+00   -92.93    6.31673E+01   -92.93
  -50.00     5.00     -22.88    2.12    2.13    0.00000    86.78  LINEAR    3.55288E+00   -92.93    6.31773E+01   -92.93
  -45.00     5.00     -22.05    2.12    2.14    0.00000    86.46  LINEAR    3.90903E+00   -92.93    6.31876E+01   -92.93
  -40.00     5.00     -21.35    2.12    2.14    0.00000    86.17  LINEAR    4.23554E+00   -92.93    6.31980E+01   -92.93
  -35.00     5.00     -20.77    2.12    2.14    0.00000    85.90  LINEAR    4.52990E+00   -92.93    6.32080E+01   -92.93
  -30.00     5.00     -20.29    2.12    2.15    0.00000    85.67  LINEAR    4.78982E+00   -92.93    6.32174E+01   -92.93
  -25.00     5.00     -19.89    2.12    2.15    0.00000    85.47  LINEAR    5.01328E+00   -92.93    6.32259E+01   -92.93
  -20.00     5.00     -19.58    2.13    2.16    0.00000    85.30  LINEAR    5.19856E+00   -92.93    6.32332E+01   -92.93
  -15.00     5.00     -19.34    2.13    2.16    0.00000    85.17  LINEAR    5.34419E+00   -92.93    6.32392E+01   -92.93
  -10.00     5.00     -19.17    2.13    2.16    0.00000    85.08  LINEAR    5.44903E+00   -92.93    6.32435E+01   -92.93
   -5.00     5.00     -19.07    2.13    2.16    0.00000    85.02  LINEAR    5.51227E+00   -92.93    6.32462E+01   -92.93
    0.00     5.00     -19.03    2.13    2.16    0.00000    85.00  LINEAR    5.53341E+00   -92.93    6.32471E+01   -92.93
 -180.00    10.00     -13.05    2.03    2.16    0.00000   -80.00  LINEAR    1.10247E+01    87.07    6.25242E+01   -92.93
 -175.00    10.00     -13.08    2.03    2.16    0.00000   -80.04  LINEAR    1.09821E+01    87.07    6.25206E+01   -92.93
 -170.00    10.00     -13.18    2.03    2.16    0.00000   -80.15  LINEAR    1.08548E+01    87.07    6.25101E+01   -92.93
 -165.00    10.00     -13.35    2.02    2.15    0.00000   -80.33  LINEAR    1.06437E+01    87.07    6.24929E+01   -92.93
 -160.00    10.00     -13.59    2.02    2.14    0.00000   -80.59  LINEAR    1.03508E+01    87.07    6.24696E+01   -92.93
 -155.00    10.00     -13.91    2.02    2.13    0.00000   -80.92  LINEAR    9.97845E+00    87.07    6.24408E+01   -92.93
 -150.00    10.00     -14.31    2.01    2.11    0.00000   -81.32  LINEAR    9.52985E+00    87.07    6.24075E+01   -92.93
 -145.00    10.00     -14.80    2.01    2.10    0.00000   -81.78  LINEAR    9.00873E+00    87.07    6.23706E+01   -92.93
 -140.00    10.00     -15.39    2.00    2.08    0.00000   -82.31  LINEAR    8.41937E+00    87.08    6.23314E+01   -92.92
 -135.00    10.00     -16.09    2.00    2.06    0.00000   -82.89  LINEAR    7.76656E+00    87.08    6.22909E+01   -92.92
 -130.00    10.00     -16.92    1.99    2.05    0.00000   -83.53  LINEAR    7.05552E+00    87.08    6.22505E+01   -92.92
 -125.00    10.00     -17.92    1.98    2.03    0.00000   -84.22  LINEAR    6.29186E+00    87.08    6.22113E+01   -92.92
 -120.00    10.00     -19.11    1.98    2.01    0.00000   -84.96  LINEAR    5.48153E+00    87.08    6.21745E+01   -92.92
 -115.00    10.00     -20.58    1.97    2.00    0.00000   -85.74  LINEAR    4.63071E+00    87.08    6.21413E+01   -92.92
 -110.00    10.00     -22.42    1.97    1.99    0.00000   -86.55  LINEAR    3.74585E+00    87.08    6.21127E+01   -92.92
 -105.00    10.00     -24.85    1.97    1.98    0.00000   -87.39  LINEAR    2.83356E+00    87.08    6.20894E+01   -92.92
 -100.00    10.00     -28.32    1.97    1.97    0.00000   -88.25  LINEAR    1.90058E+00    87.08    6.20723E+01   -92.92
  -95.00    10.00     -34.30    1.96    1.96    0.00000   -89.12  LINEAR    9.53761E-01    87.08    6.20618E+01   -92.92
  -90.00    10.00    -999.99    1.96    1.96    0.00000   -90.00  LINEAR    5.58444E-11    87.08    6.20583E+01   -92.92
  -85.00    10.00     -34.30    1.96    1.96    0.00000    89.12  LINEAR    9.53761E-01   -92.92    6.20618E+01   -92.92
  -80.00    10.00     -28.32    1.97    1.97    0.00000    88.25  LINEAR    1.90058E+00   -92.92    6.20723E+01   -92.92
  -75.00    10.00     -24.85    1.97    1.98    0.00000    87.39  LINEAR    2.83356E+00   -92.92    6.20894E+01   -92.92
  -70.00    10.00     -22.42    1.97    1.99    0.00000    86.55  LINEAR    3.74585E+00   -92.92    6.21127E+01   -92.92
  -65.00    10.00     -20.58    1.97    2.00    0.00000    85.74  LINEAR    4.63071E+00   -92.92    6.21413E+01   -92.92
  -60.00    10.00     -19.11    1.98    2.01    0.00000    84.96  LINEAR    5.48153E+00   -92.92    6.21745E+01   -92.92
  -55.00    10.00     -17.92    1.98    2.03    0.00000    84.22  LINEAR    6.29186E+00   -92.92    6.22113E+01   -92.92
  -50.00    10.00     -16.92    1.99    2.05    0.00000    83.53  LINEAR    7.05552E+00   -92.92    6.22505E+01   -92.92
  -45.00    10.00     -16.09    2.00    2.06    0.00000    82.89  LINEAR    7.76656E+00   -92.92    6.22909E+01   -92.92
  -40.00    10.00     -15.39    2.00    2.08    0.00000    82.31  LINEAR    8.41937E+00   -92.92    6.23314E+01   -92.92
  -35.00    10.00     -14.80    2.01    2.10    0.00000    81.78  LINEAR    9.00873E+00   -92.93    6.23706E+01   -92.93
  -30.00    10.00     -14.31    2.01    2.11    0.00000    81.32  LINEAR    9.52985E+00   -92.93    6.24075E+01   -92.93
  -25.00    10.00     -13.91    2.02    2.13    0.00000    80.92  LINEAR    9.97845E+00   -92.93    6.24408E+01   -92.93
  -20.00    10.00     -13.59    2.02    2.14    0.00000    80.59  LINEAR    1.03508E+01   -92.93    6.24696E+01   -92.93
  -15.00    10.00     -13.35    2.02    2.15    0.00000    80.33  LINEAR    1.06437E+01   -92.93    6.24929E+01   -92.93
  -10.00    10.00     -13.18    2.03    2.16    0.00000    80.15  LINEAR    1.08548E+01   -92.93    6.25101E+01   -92.93
   -5.00    10.00     -13.08    2.03    2.16    0.00000    80.04  LINEAR    1.09821E+01   -92.93    6.25206E+01   -92.93
    0.00    10.00     -13.05    2.03    2.16    0.00000    80.00  LINEAR    1.10247E+01   -92.93    6.25242E+01   -92.93
 -180.00    15.00      -9.58    1.86    2.16    0.00000   -75.00  LINEAR    1.64321E+01    87.07    6.13254E+01   -92.93
 -175.00    15.00      -9.61    1.86    2.16    0.00000   -75.05  LINEAR    1.63675E+01    87.07    6.13177E+01   -92.93
 -170.00    15.00      -9.72    1.86    2.15    0.00000   -75.22  LINEAR    1.61744E+01    87.07    6.12947E+01   -92.93
 -165.00    15.00      -9.89    1.85    2.13    0.00000   -75.49  LINEAR    1.58545E+01    87.07    6.12573E+01   -92.93
 -160.00    15.00     -10.14    1.84    2.11    0.00000   -75.87  LINEAR    1.54112E+01    87.07    6.12064E+01   -92.93
 -155.00    15.00     -10.46    1.83    2.08    0.00000   -76.35  LINEAR    1.48484E+01    87.07    6.11438E+01   -92.93
 -150.00    15.00     -10.86    1.82    2.05    0.00000   -76.94  LINEAR    1.41716E+01    87.08    6.10713E+01   -92.92
 -145.00    15.00     -11.36    1.81    2.02    0.00000   -77.62  LINEAR    1.33870E+01    87.08    6.09912E+01   -92.92
 -140.00    15.00     -11.95    1.80    1.98    0.00000   -78.40  LINEAR    1.25016E+01    87.08    6.09059E+01   -92.92
 -135.00    15.00     -12.66    1.79    1.94    0.00000   -79.27  LINEAR    1.15231E+01    87.08    6.08180E+01   -92.92
 -130.00    15.00     -13.50    1.78    1.90    0.00000   -80.23  LINEAR    1.04598E+01    87.09    6.07302E+01   -92.91
 -125.00    15.00     -14.50    1.76    1.86    0.00000   -81.26  LINEAR    9.32051E+00    87.09    6.06451E+01   -92.91
 -120.00    15.00     -15.71    1.75    1.83    0.00000   -82.37  LINEAR    8.11423E+00    87.09    6.05654E+01   -92.91
 -115.00    15.00     -17.18    1.74    1.80    0.00000   -83.54  LINEAR    6.85029E+00    87.09    6.04934E+01   -92.91
 -110.00    15.00     -19.03    1.73    1.77    0.00000   -84.76  LINEAR    5.53817E+00    87.09    6.04313E+01   -92.91
 -105.00    15.00     -21.45    1.73    1.75    0.00000   -86.03  LINEAR    4.18744E+00    87.10    6.03810E+01   -92.90
 -100.00    15.00     -24.93    1.72    1.73    0.00000   -87.34  LINEAR    2.80773E+00    87.10    6.03439E+01   -92.90
  -95.00    15.00     -30.92    1.72    1.72    0.00000   -88.66  LINEAR    1.40870E+00    87.10    6.03212E+01   -92.90
  -90.00    15.00    -999.99    1.72    1.72    0.00000   -90.00  LINEAR    8.24761E-11    87.10    6.03136E+01   -92.90
  -85.00    15.00     -30.92    1.72    1.72    0.00000    88.66  LINEAR    1.40870E+00   -92.90    6.03212E+01   -92.90
  -80.00    15.00     -24.93    1.72    1.73    0.00000    87.34  LINEAR    2.80773E+00   -92.90    6.03439E+01   -92.90
  -75.00    15.00     -21.45    1.73    1.75    0.00000    86.03  LINEAR    4.18744E+00   -92.90    6.03810E+01   -92.90
  -70.00    15.00     -19.03    1.73    1.77    0.00000    84.76  LINEAR    5.53817E+00   -92.91    6.04313E+01   -92.91
  -65.00    15.00     -17.18    1.74    1.80    0.00000    83.54  LINEAR    6.85029E+00   -92.91    6.04934E+01   -92.91
  -60.00    15.00     -15.71    1.75    1.83    0.00000    82.37  LINEAR    8.11423E+00   -92.91    6.05654E+01   -92.91
  -55.00    15.00     -14.50    1.76    1.86    0.00000    81.26  LINEAR    9.32051E+00   -92.91    6.06451E+01   -92.91
  -50.00    15.00     -13.50    1.78    1.90    0.00000    80.23  LINEAR    1.04598E+01   -92.91    6.07302E+01   -92.91
  -45.00    15.00     -12.66    1.79    1.94    0.00000    79.27  LINEAR    1.15231E+01   -92.92    6.08180E+01   -92.92
  -40.00    15.00     -11.95    1.80    1.98    0.00000    78.40  LINEAR    1.25016E+01   -92.92    6.09059E+01   -92.92
  -35.00    15.00     -11.36    1.81    2.02    0.00000    77.62  LINEAR    1.33870E+01   -92.92    6.09912E+01   -92.92
  -30.00    15.00     -10.86    1.82    2.05    0.00000    76.94  LINEAR    1.41716E+01   -92.92    6.10713E+01   -92.92
  -25.00    15.00     -10.46    1.83    2.08    0.00000    76.35  LINEAR    1.48484E+01   -92.93    6.11438E+01   -92.93
  -20.00    15.00     -10.14    1.84    2.11    0.00000    75.87  LINEAR    1.54112E+01   -92.93    6.12064E+01   -92.93
  -15.00    15.00      -9.89    1.85    2.13    0.00000    75.49  LINEAR    1.58545E+01   -92.93    6.12573E+01   -92.93
  -10.00    15.00      -9.72    1.86    2.15    0.00000    75.22  LINEAR    1.61744E+01   -92.93    6.12947E+01   -92.93
   -5.00    15.00      -9.61    1.86    2.16    0.00000    75.05  LINEAR    1.63675E+01   -92.93    6.13177E+01   -92.93
    0.00    15.00      -9.58    1.86    2.16    0.00000    75.00  LINEAR    1.64321E+01   -92.93    6.13254E+01   -92.93
 -180.00    20.00      -7.16    1.62    2.16    0.00000   -70.00  LINEAR    2.17144E+01    87.07    5.96599E+01   -92.93
 -175.00    20.00      -7.19    1.62    2.16    0.00000   -70.07  LINEAR    2.16270E+01    87.07    5.96468E+01   -92.93
 -170.00    20.00      -7.30    1.61    2.14    0.00000   -70.28  LINEAR    2.13659E+01    87.07    5.96078E+01   -92.93
 -165.00    20.00      -7.48    1.60    2.11    0.00000   -70.63  LINEAR    2.09338E+01    87.07    5.95441E+01   -92.93
 -160.00    20.00      -7.73    1.59    2.07    0.00000   -71.12  LINEAR    2.03358E+01    87.08    5.94579E+01   -92.92
 -155.00    20.00      -8.06    1.58    2.02    0.00000   -71.74  LINEAR    1.95783E+01    87.08    5.93516E+01   -92.92
 -150.00    20.00      -8.47    1.56    1.97    0.00000   -72.50  LINEAR    1.86693E+01    87.08    5.92287E+01   -92.92
 -145.00    20.00      -8.97    1.54    1.91    0.00000   -73.40  LINEAR    1.76184E+01    87.09    5.90929E+01   -92.91
 -140.00    20.00      -9.58    1.52    1.84    0.00000   -74.42  LINEAR    1.64359E+01    87.09    5.89485E+01   -92.91
 -135.00    20.00     -10.29    1.49    1.77    0.00000   -75.57  LINEAR    1.51331E+01    87.09    5.87998E+01   -92.91
 -130.00    20.00     -11.14    1.47    1.70    0.00000   -76.83  LINEAR    1.37218E+01    87.10    5.86513E+01   -92.90
 -125.00    20.00     -12.16    1.45    1.64    0.00000   -78.21  LINEAR    1.22143E+01    87.10    5.85076E+01   -92.90
 -120.00    20.00     -13.37    1.43    1.57    0.00000   -79.69  LINEAR    1.06230E+01    87.11    5.83730E+01   -92.89
 -115.00    20.00     -14.85    1.41    1.51    0.00000   -81.26  LINEAR    8.96029E+00    87.11    5.82516E+01   -92.89
 -110.00    20.00     -16.70    1.40    1.46    0.00000   -82.90  LINEAR    7.23842E+00    87.11    5.81469E+01   -92.89
 -105.00    20.00     -19.13    1.38    1.42    0.00000   -84.62  LINEAR    5.46959E+00    87.12    5.80621E+01   -92.88
 -100.00    20.00     -22.61    1.38    1.39    0.00000   -86.38  LINEAR    3.66574E+00    87.12    5.79996E+01   -92.88
  -95.00    20.00     -28.60    1.37    1.37    0.00000   -88.18  LINEAR    1.83866E+00    87.12    5.79614E+01   -92.88
  -90.00    20.00    -999.99    1.37    1.37    0.00000   -90.00  LINEAR    1.07639E-10    87.12    5.79485E+01   -92.88
  -85.00    20.00     -28.60    1.37    1.37    0.00000    88.18  LINEAR    1.83866E+00   -92.88    5.79614E+01   -92.88
  -80.00    20.00     -22.61    1.38    1.39    0.00000    86.38  LINEAR    3.66574E+00   -92.88    5.79996E+01   -92.88
  -75.00    20.00     -19.13    1.38    1.42    0.00000    84.62  LINEAR    5.46959E+00   -92.88    5.80621E+01   -92.88
  -70.00    20.00     -16.70    1.40    1.46    0.00000    82.90  LINEAR    7.23842E+00   -92.89    5.81469E+01   -92.89
  -65.00    20.00     -14.85    1.41    1.51    0.00000    81.26  LINEAR    8.96029E+00   -92.89    5.82516E+01   -92.89
  -60.00    20.00     -13.37    1.43    1.57    0.00000    79.69  LINEAR    1.06230E+01   -92.89    5.83730E+01   -92.89
  -55.00    20.00     -12.16    1.45    1.64    0.00000    78.21  LINEAR    1.22143E+01   -92.90    5.85076E+01   -92.90
  -50.00    20.00     -11.14    1.47    1.70    0.00000    76.83  LINEAR    1.37218E+01   -92.90    5.86513E+01   -92.90
  -45.00    20.00     -10.29    1.49    1.77    0.00000    75.57  LINEAR    1.51331E+01   -92.91    5.87998E+01   -92.91
  -40.00    20.00      -9.58    1.52    1.84    0.00000    74.42  LINEAR    1.64359E+01   -92.91    5.89485E+01   -92.91
  -35.00    20.00      -8.97    1.54    1.91    0.00000    73.40  LINEAR    1.76184E+01   -92.91    5.90929E+01   -92.91
  -30.00    20.00      -8.47    1.56    1.97    0.00000    72.50  LINEAR    1.86693E+01   -92.92    5.92287E+01   -92.92
  -25.00    20.00      -8.06    1.58    2.02    0.00000    71.74  LINEAR    1.95783E+01   -92.92    5.93516E+01   -92.92
  -20.00    20.00      -7.73    1.59    2.07    0.00000    71.12  LINEAR    2.03358E+01   -92.92    5.94579E+01   -92.92
  -15.00    20.00      -7.48    1.60    2.11    0.00000    70.63  LINEAR    2.09338E+01   -92.93    5.95441E+01   -92.93
  -10.00    20.00      -7.30    1.61    2.14    0.00000    70.28  LINEAR    2.13659E+01   -92.93    5.96078E+01   -92.93
   -5.00    20.00      -7.19    1.62    2.16    0.00000    70.07  LINEAR    2.16270E+01   -92.93    5.96468E+01   -92.93
    0.00    20.00      -7.16    1.62    2.16    0.00000    70.00  LINEAR    2.17144E+01   -92.93    5.96599E+01   -92.93
 -180.00    25.00      -5.32    1.31    2.16    0.00000   -65.00  LINEAR    2.68315E+01    87.07    5.75403E+01   -92.93
 -175.00    25.00      -5.36    1.30    2.15    0.00000   -65.08  LINEAR    2.67204E+01    87.07    5.75210E+01   -92.93
 -170.00    25.00      -5.46    1.29    2.13    0.00000   -65.33  LINEAR    2.63886E+01    87.07    5.74636E+01   -92.93
 -165.00    25.00      -5.65    1.28    2.08    0.00000   -65.75  LINEAR    2.58405E+01    87.07    5.73699E+01   -92.93
 -160.00    25.00      -5.91    1.26    2.02    0.00000   -66.34  LINEAR    2.50831E+01    87.08    5.72430E+01   -92.92
 -155.00    25.00      -6.24    1.24    1.95    0.00000   -67.09  LINEAR    2.41259E+01    87.08    5.70868E+01   -92.92
 -150.00    25.00      -6.67    1.21    1.87    0.00000   -68.01  LINEAR    2.29807E+01    87.09    5.69062E+01   -92.91
 -145.00    25.00      -7.18    1.18    1.77    0.00000   -69.09  LINEAR    2.16607E+01    87.09    5.67069E+01   -92.91
 -140.00    25.00      -7.79    1.15    1.67    0.00000   -70.34  LINEAR    2.01807E+01    87.10    5.64951E+01   -92.90
 -135.00    25.00      -8.52    1.11    1.56    0.00000   -71.75  LINEAR    1.85562E+01    87.11    5.62772E+01   -92.89
 -130.00    25.00      -9.39    1.08    1.45    0.00000   -73.31  LINEAR    1.68032E+01    87.11    5.60599E+01   -92.89
 -125.00    25.00     -10.41    1.05    1.35    0.00000   -75.03  LINEAR    1.49377E+01    87.12    5.58497E+01   -92.88
 -120.00    25.00     -11.63    1.02    1.25    0.00000   -76.88  LINEAR    1.29757E+01    87.13    5.56531E+01   -92.87
 -115.00    25.00     -13.12    0.99    1.15    0.00000   -78.85  LINEAR    1.09326E+01    87.13    5.54757E+01   -92.87
 -110.00    25.00     -14.98    0.97    1.07    0.00000   -80.94  LINEAR    8.82328E+00    87.14    5.53230E+01   -92.86
 -105.00    25.00     -17.42    0.95    1.01    0.00000   -83.12  LINEAR    6.66197E+00    87.14    5.51993E+01   -92.86
 -100.00    25.00     -20.90    0.93    0.96    0.00000   -85.37  LINEAR    4.46231E+00    87.14    5.51083E+01   -92.86
  -95.00    25.00     -26.90    0.92    0.93    0.00000   -87.67  LINEAR    2.23742E+00    87.15    5.50526E+01   -92.85
  -90.00    25.00    -999.99    0.92    0.92    0.00000   -90.00  LINEAR    1.30967E-10    87.15    5.50339E+01   -92.85
  -85.00    25.00     -26.90    0.92    0.93    0.00000    87.67  LINEAR    2.23742E+00   -92.85    5.50526E+01   -92.85
  -80.00    25.00     -20.90    0.93    0.96    0.00000    85.37  LINEAR    4.46231E+00   -92.86    5.51083E+01   -92.86
  -75.00    25.00     -17.42    0.95    1.01    0.00000    83.12  LINEAR    6.66197E+00   -92.86    5.51993E+01   -92.86
  -70.00    25.00     -14.98    0.97    1.07    0.00000    80.94  LINEAR    8.82328E+00   -92.86    5.53230E+01   -92.86
  -65.00    25.00     -13.12    0.99    1.15    0.00000    78.85  LINEAR    1.09326E+01   -92.87    5.54757E+01   -92.87
  -60.00    25.00     -11.63    1.02    1.25    0.00000    76.88  LINEAR    1.29757E+01   -92.87    5.56531E+01   -92.87
  -55.00    25.00     -10.41    1.05    1.35    0.00000    75.03  LINEAR    1.49377E+01   -92.88    5.58497E+01   -92.88
  -50.00    25.00      -9.39    1.08    1.45    0.00000    73.31  LINEAR    1.68032E+01   -92.89    5.60599E+01   -92.89
  -45.00    25.00      -8.52    1.11    1.56    0.00000    71.75  LINEAR    1.85562E+01   -92.89    5.62772E+01   -92.89
  -40.00    25.00      -7.79    1.15    1.67    0.00000    70.34  LINEAR    2.01807E+01   -92.90    5.64951E+01   -92.90
  -35.00    25.00      -7.18    1.18    1.77    0.00000    69.09  LINEAR    2.16607E+01   -92.91    5.67069E+01   -92.91
  -30.00    25.00      -6.67    1.21    1.87    0.00000    68.01  LINEAR    2.29807E+01   -92.91    5.69062E+01   -92.91
  -25.00    25.00      -6.24    1.24    1.95    0.00000    67.09  LINEAR    2.41259E+01   -92.92    5.70868E+01   -92.92
  -20.00    25.00      -5.91    1.26    2.02    0.00000    66.34  LINEAR    2.50831E+01   -92.92    5.72430E+01   -92.92
  -15.00    25.00      -5.65    1.28    2.08    0.00000    65.75  LINEAR    2.58405E+01   -92.93    5.73699E+01   -92.93
  -10.00    25.00      -5.46    1.29    2.13    0.00000    65.33  LINEAR    2.63886E+01   -92.93    5.74636E+01   -92.93
   -5.00    25.00      -5.36    1.30    2.15    0.00000    65.08  LINEAR    2.67204E+01   -92.93    5.75210E+01   -92.93
    0.00    25.00      -5.32    1.31    2.16    0.00000    65.00  LINEAR    2.68315E+01   -92.93    5.75403E+01   -92.93
 -180.00    30.00      -3.86    0.91    2.16    0.00000   -60.00  LINEAR    3.17444E+01    87.07    5.49829E+01   -92.93
 -175.00    30.00      -3.90    0.91    2.15    0.00000   -60.09  LINEAR    3.16087E+01    87.07    5.49570E+01   -92.93
 -170.00    30.00      -4.01    0.90    2.11    0.00000   -60.38  LINEAR    3.12037E+01    87.07    5.48802E+01   -92.93
 -165.00    30.00      -4.20    0.88    2.05    0.00000   -60.85  LINEAR    3.05357E+01    87.08    5.47550E+01   -92.92
 -160.00    30.00      -4.46    0.85    1.97    0.00000   -61.52  LINEAR    2.96144E+01    87.08    5.45855E+01   -92.92
 -155.00    30.00      -4.81    0.82    1.87    0.00000   -62.38  LINEAR    2.84531E+01    87.09    5.43770E+01   -92.91
 -150.00    30.00      -5.24    0.78    1.75    0.00000   -63.43  LINEAR    2.70680E+01    87.10    5.41361E+01   -92.90
 -145.00    30.00      -5.77    0.73    1.61    0.00000   -64.69  LINEAR    2.54774E+01    87.10    5.38705E+01   -92.90
 -140.00    30.00      -6.40    0.69    1.46    0.00000   -66.14  LINEAR    2.37009E+01    87.11    5.35885E+01   -92.89
 -135.00    30.00      -7.14    0.64    1.31    0.00000   -67.79  LINEAR    2.17591E+01    87.12    5.32987E+01   -92.88
 -130.00    30.00      -8.02    0.59    1.15    0.00000   -69.64  LINEAR    1.96727E+01    87.13    5.30100E+01   -92.87
 -125.00    30.00      -9.05    0.55    1.00    0.00000   -71.68  LINEAR    1.74622E+01    87.14    5.27312E+01   -92.86
 -120.00    30.00     -10.29    0.51    0.85    0.00000   -73.90  LINEAR    1.51469E+01    87.15    5.24705E+01   -92.85
 -115.00    30.00     -11.79    0.47    0.72    0.00000   -76.29  LINEAR    1.27455E+01    87.16    5.22357E+01   -92.84
 -110.00    30.00     -13.66    0.43    0.60    0.00000   -78.83  LINEAR    1.02748E+01    87.16    5.20337E+01   -92.84
 -105.00    30.00     -16.11    0.41    0.50    0.00000   -81.50  LINEAR    7.75091E+00    87.17    5.18701E+01   -92.83
 -100.00    30.00     -19.59    0.39    0.43    0.00000   -84.27  LINEAR    5.18823E+00    87.17    5.17499E+01   -92.83
  -95.00    30.00     -25.59    0.37    0.38    0.00000   -87.12  LINEAR    2.60032E+00    87.18    5.16763E+01   -92.82
  -90.00    30.00    -999.99    0.37    0.37    0.00000   -90.00  LINEAR    1.52189E-10    87.18    5.16516E+01   -92.82
  -85.00    30.00     -25.59    0.37    0.38    0.00000    87.12  LINEAR    2.60032E+00   -92.82    5.16763E+01   -92.82
  -80.00    30.00     -19.59    0.39    0.43    0.00000    84.27  LINEAR    5.18823E+00   -92.83    5.17499E+01   -92.83
  -75.00    30.00     -16.11    0.41    0.50    0.00000    81.50  LINEAR    7.75091E+00   -92.83    5.18701E+01   -92.83
  -70.00    30.00     -13.66    0.43    0.60    0.00000    78.83  LINEAR    1.02748E+01   -92.84    5.20337E+01   -92.84
  -65.00    30.00     -11.79    0.47    0.72    0.00000    76.29  LINEAR    1.27455E+01   -92.84    5.22357E+01   -92.84
  -60.00    30.00     -10.29    0.51    0.85    0.00000    73.90  LINEAR    1.51469E+01   -92.85    5.24705E+01   -92.85
  -55.00    30.00      -9.05    0.55    1.00    0.00000    71.68  LINEAR    1.74622E+01   -92.86    5.27312E+01   -92.86
  -50.00    30.00      -8.02    0.59    1.15    0.00000    69.64  LINEAR    1.96727E+01   -92.87    5.30100E+01   -92.87
  -45.00    30.00      -7.14    0.64    1.31    0.00000    67.79  LINEAR    2.17591E+01   -92.88    5.32987E+01   -92.88
  -40.00    30.00      -6.40    0.69    1.46    0.00000    66.14  LINEAR    2.37009E+01   -92.89    5.35885E+01   -92.89
  -35.00    30.00      -5.77    0.73    1.61    0.00000    64.69  LINEAR    2.54774E+01   -92.90    5.38705E+01   -92.90
  -30.00    30.00      -5.24    0.78    1.75    0.00000    63.43  LINEAR    2.70680E+01   -92.90    5.41361E+01   -92.90
  -25.00    30.00      -4.81    0.82    1.87    0.00000    62.38  LINEAR    2.84531E+01   -92.91    5.43770E+01   -92.91
  -20.00    30.00      -4.46    0.85    1.97    0.00000    61.52  LINEAR    2.96144E+01   -92.92    5.45855E+01   -92.92
  -15.00    30.00      -4.20    0.88    2.05    0.00000    60.85  LINEAR    3.05357E+01   -92.92    5.47550E+01   -92.92
  -10.00    30.00      -4.01    0.90    2.11    0.00000    60.38  LINEAR    3.12037E+01   -92.93    5.48802E+01   -92.93
   -5.00    30.00      -3.90    0.91    2.15    0.00000    60.09  LINEAR    3.16087E+01   -92.93    5.49570E+01   -92.93
    0.00    30.00      -3.86    0.91    2.16    0.00000    60.00  LINEAR    3.17444E+01   -92.93    5.49829E+01   -92.93
 -180.00    35.00      -2.67    0.43    2.16    0.00000   -55.00  LINEAR    3.64156E+01    87.07    5.20069E+01   -92.93
 -175.00    35.00      -2.71    0.42    2.14    0.00000   -55.10  LINEAR    3.62546E+01    87.07    5.19747E+01   -92.93
 -170.00    35.00      -2.82    0.41    2.10    0.00000   -55.41  LINEAR    3.57743E+01    87.07    5.18792E+01   -92.93
 -165.00    35.00      -3.02    0.38    2.02    0.00000   -55.93  LINEAR    3.49831E+01    87.08    5.17235E+01   -92.92
 -160.00    35.00      -3.29    0.35    1.91    0.00000   -56.66  LINEAR    3.38943E+01    87.09    5.15127E+01   -92.91
 -155.00    35.00      -3.65    0.30    1.77    0.00000   -57.60  LINEAR    3.25258E+01    87.09    5.12537E+01   -92.91
 -150.00    35.00      -4.09    0.25    1.61    0.00000   -58.77  LINEAR    3.08989E+01    87.10    5.09548E+01   -92.90
 -145.00    35.00      -4.63    0.19    1.43    0.00000   -60.16  LINEAR    2.90376E+01    87.12    5.06255E+01   -92.88
 -140.00    35.00      -5.28    0.13    1.23    0.00000   -61.79  LINEAR    2.69677E+01    87.13    5.02763E+01   -92.87
 -135.00    35.00      -6.03    0.07    1.02    0.00000   -63.66  LINEAR    2.47154E+01    87.14    4.99179E+01   -92.86
 -130.00    35.00      -6.92    0.01    0.81    0.00000   -65.77  LINEAR    2.23068E+01    87.15    4.95613E+01   -92.85
 -125.00    35.00      -7.97   -0.05    0.60    0.00000   -68.12  LINEAR    1.97668E+01    87.16    4.92173E+01   -92.84
 -120.00    35.00      -9.22   -0.11    0.39    0.00000   -70.70  LINEAR    1.71187E+01    87.18    4.88961E+01   -92.82
 -115.00    35.00     -10.74   -0.16    0.21    0.00000   -73.52  LINEAR    1.43838E+01    87.19    4.86071E+01   -92.81
 -110.00    35.00     -12.62   -0.20    0.04    0.00000   -76.53  LINEAR    1.15811E+01    87.20    4.83585E+01   -92.80
 -105.00    35.00     -15.08   -0.24   -0.10    0.00000   -79.73  LINEAR    8.72746E+00    87.20    4.81576E+01   -92.80
 -100.00    35.00     -18.57   -0.27   -0.20    0.00000   -83.07  LINEAR    5.83752E+00    87.21    4.80099E+01   -92.79
  -95.00    35.00     -24.57   -0.28   -0.27    0.00000   -86.51  LINEAR    2.92440E+00    87.21    4.79196E+01   -92.79
  -90.00    35.00    -999.99   -0.29   -0.29    0.00000   -90.00  LINEAR    1.71130E-10    87.21    4.78893E+01   -92.79
  -85.00    35.00     -24.57   -0.28   -0.27    0.00000    86.51  LINEAR    2.92440E+00   -92.79    4.79196E+01   -92.79
  -80.00    35.00     -18.57   -0.27   -0.20    0.00000    83.07  LINEAR    5.83752E+00   -92.79    4.80099E+01   -92.79
  -75.00    35.00     -15.08   -0.24   -0.10    0.00000    79.73  LINEAR    8.72746E+00   -92.80    4.81576E+01   -92.80
  -70.00    35.00     -12.62   -0.20    0.04    0.00000    76.53  LINEAR    1.15811E+01   -92.80    4.83585E+01   -92.80
  -65.00    35.00     -10.74   -0.16    0.21    0.00000    73.52  LINEAR    1.43838E+01   -92.81    4.86071E+01   -92.81
  -60.00    35.00      -9.22   -0.11    0.39    0.00000    70.70  LINEAR    1.71187E+01   -92.82    4.88961E+01   -92.82
  -55.00    35.00      -7.97   -0.05    0.60    0.00000    68.12  LINEAR    1.97668E+01   -92.84    4.92173E+01   -92.84
  -50.00    35.00      -6.92    0.01    0.81    0.00000    65.77  LINEAR    2.23068E+01   -92.85    4.95613E+01   -92.85
  -45.00    35.00      -6.03    0.07    1.02    0.00000    63.66  LINEAR    2.47154E+01   -92.86    4.99179E+01   -92.86
  -40.00    35.00      -5.28    0.13    1.23    0.00000    61.79  LINEAR    2.69677E+01   -92.87    5.02763E+01   -92.87
  -35.00    35.00      -4.63    0.19    1.43    0.00000    60.16  LINEAR    2.90376E+01   -92.88    5.06255E+01   -92.88
  -30.00    35.00      -4.09    0.25    1.61    0.00000    58.77  LINEAR    3.08989E+01   -92.90    5.09548E+01   -92.90
  -25.00    35.00      -3.65    0.30    1.77    0.00000    57.60  LINEAR    3.25258E+01   -92.91    5.12537E+01   -92.91
  -20.00    35.00      -3.29    0.35    1.91    0.00000    56.66  LINEAR    3.38943E+01   -92.91    5.15127E+01   -92.91
  -15.00    35.00      -3.02    0.38    2.02    0.00000    55.93  LINEAR    3.49831E+01   -92.92    5.17235E+01   -92.92
  -10.00    35.00      -2.82    0.41    2.10    0.00000    55.41  LINEAR    3.57743E+01   -92.93    5.18792E+01   -92.93
   -5.00    35.00      -2.71    0.42    2.14    0.00000    55.10  LINEAR    3.62546E+01   -92.93    5.19747E+01   -92.93
    0.00    35.00      -2.67    0.43    2.16    0.00000    55.00  LINEAR    3.64156E+01   -92.93    5.20069E+01   -92.93
 -180.00    40.00      -1.68   -0.15    2.16    0.00000   -50.00  LINEAR    4.08098E+01    87.07    4.86352E+01   -92.93
 -175.00    40.00      -1.72   -0.16    2.14    0.00000   -50.11  LINEAR    4.06229E+01    87.07    4.85974E+01   -92.93
 -170.00    40.00      -1.84   -0.18    2.08    0.00000   -50.43  LINEAR    4.00659E+01    87.08    4.84852E+01   -92.92
 -165.00    40.00      -2.04   -0.21    1.98    0.00000   -50.97  LINEAR    3.91495E+01    87.08    4.83025E+01   -92.92
 -160.00    40.00      -2.32   -0.26    1.84    0.00000   -51.74  LINEAR    3.78914E+01    87.09    4.80552E+01   -92.91
 -155.00    40.00      -2.69   -0.31    1.67    0.00000   -52.75  LINEAR    3.63143E+01    87.10    4.77517E+01   -92.90
 -150.00    40.00      -3.15   -0.38    1.46    0.00000   -53.99  LINEAR    3.44460E+01    87.11    4.74018E+01   -92.89
 -145.00    40.00      -3.70   -0.45    1.23    0.00000   -55.50  LINEAR    3.23170E+01    87.13    4.70168E+01   -92.87
 -140.00    40.00      -4.36   -0.52    0.98    0.00000   -57.27  LINEAR    2.99596E+01    87.14    4.66089E+01   -92.86
 -135.00    40.00      -5.14   -0.60    0.71    0.00000   -59.32  LINEAR    2.74065E+01    87.16    4.61908E+01   -92.84
 -130.00    40.00      -6.04   -0.68    0.43    0.00000   -61.66  LINEAR    2.46896E+01    87.17    4.57755E+01   -92.83
 -125.00    40.00      -7.11   -0.76    0.15    0.00000   -64.30  LINEAR    2.18386E+01    87.19    4.53753E+01   -92.81
 -120.00    40.00      -8.37   -0.83   -0.12    0.00000   -67.24  LINEAR    1.88806E+01    87.20    4.50020E+01   -92.80
 -115.00    40.00      -9.90   -0.89   -0.38    0.00000   -70.47  LINEAR    1.58396E+01    87.22    4.46665E+01   -92.78
 -110.00    40.00     -11.79   -0.95   -0.61    0.00000   -73.99  LINEAR    1.27361E+01    87.23    4.43784E+01   -92.77
 -105.00    40.00     -14.26   -1.00   -0.80    0.00000   -77.75  LINEAR    9.58732E+00    87.24    4.41456E+01   -92.76
 -100.00    40.00     -17.76   -1.03   -0.94    0.00000   -81.71  LINEAR    6.40746E+00    87.25    4.39746E+01   -92.75
  -95.00    40.00     -23.77   -1.05   -1.03    0.00000   -85.82  LINEAR    3.20833E+00    87.25    4.38702E+01   -92.75
  -90.00    40.00    -999.99   -1.06   -1.06    0.00000   -90.00  LINEAR    1.87713E-10    87.25    4.38350E+01   -92.75
  -85.00    40.00     -23.77   -1.05   -1.03    0.00000    85.82  LINEAR    3.20833E+00   -92.75    4.38702E+01   -92.75
  -80.00    40.00     -17.76   -1.03   -0.94    0.00000    81.71  LINEAR    6.40746E+00   -92.75    4.39746E+01   -92.75
  -75.00    40.00     -14.26   -1.00   -0.80    0.00000    77.75  LINEAR    9.58732E+00   -92.76    4.41456E+01   -92.76
  -70.00    40.00     -11.79   -0.95   -0.61    0.00000    73.99  LINEAR    1.27361E+01   -92.77    4.43784E+01   -92.77
  -65.00    40.00      -9.90   -0.89   -0.38    0.00000    70.47  LINEAR    1.58396E+01   -92.78    4.46665E+01   -92.78
  -60.00    40.00      -8.37   -0.83   -0.12    0.00000    67.24  LINEAR    1.88806E+01   -92.80    4.50020E+01   -92.80
  -55.00    40.00      -7.11   -0.76    0.15    0.00000    64.30  LINEAR    2.18386E+01   -92.81    4.53753E+01   -92.81
  -50.00    40.00      -6.04   -0.68    0.43    0.00000    61.66  LINEAR    2.46896E+01   -92.83    4.57755E+01   -92.83
  -45.00    40.00      -5.14   -0.60    0.71    0.00000    59.32  LINEAR    2.74065E+01   -92.84    4.61908E+01   -92.84
  -40.00    40.00      -4.36   -0.52    0.98    0.00000    57.27  LINEAR    2.99596E+01   -92.86    4.66089E+01   -92.86
  -35.00    40.00      -3.70   -0.45    1.23    0.00000    55.50  LINEAR    3.23170E+01   -92.87    4.70168E+01   -92.87
  -30.00    40.00      -3.15   -0.38    1.46    0.00000    53.99  LINEAR    3.44460E+01   -92.89    4.74018E+01   -92.89
  -25.00    40.00      -2.69   -0.31    1.67    0.00000    52.75  LINEAR    3.63143E+01   -92.90    4.77517E+01   -92.90
  -20.00    40.00      -2.32   -0.26    1.84    0.00000    51.74  LINEAR    3.78914E+01   -92.91    4.80552E+01   -92.91
  -15.00    40.00      -2.04   -0.21    1.98    0.00000    50.97  LINEAR    3.91495E+01   -92.92    4.83025E+01   -92.92
  -10.00    40.00      -1.84   -0.18    2.08    0.00000    50.43  LINEAR    4.00659E+01   -92.92    4.84852E+01   -92.92
   -5.00    40.00      -1.72   -0.16    2.14    0.00000    50.11  LINEAR    4.06229E+01   -92.93    4.85974E+01   -92.93
    0.00    40.00      -1.68   -0.15    2.16    0.00000    50.00  LINEAR    4.08098E+01   -92.93    4.86352E+01   -92.93
 -180.00    45.00      -0.85   -0.85    2.16    0.00000   -45.00  LINEAR    4.48933E+01    87.07    4.48933E+01   -92.93
 -175.00    45.00      -0.89   -0.86    2.14    0.00000   -45.11  LINEAR    4.46804E+01    87.07    4.48511E+01   -92.93
 -170.00    45.00      -1.01   -0.88    2.06    0.00000   -45.44  LINEAR    4.40463E+01    87.08    4.47258E+01   -92.92
 -165.00    45.00      -1.22   -0.92    1.94    0.00000   -45.99  LINEAR    4.30048E+01    87.08    4.45219E+01   -92.92
 -160.00    45.00      -1.52   -0.98    1.77    0.00000   -46.78  LINEAR    4.15777E+01    87.09    4.42461E+01   -92.91
 -155.00    45.00      -1.90   -1.04    1.56    0.00000   -47.81  LINEAR    3.97940E+01    87.11    4.39078E+01   -92.89
 -150.00    45.00      -2.37   -1.12    1.31    0.00000   -49.11  LINEAR    3.76879E+01    87.12    4.35182E+01   -92.88
 -145.00    45.00      -2.94   -1.21    1.02    0.00000   -50.68  LINEAR    3.52973E+01    87.14    4.30900E+01   -92.86
 -140.00    45.00      -3.61   -1.30    0.71    0.00000   -52.55  LINEAR    3.26618E+01    87.16    4.26370E+01   -92.84
 -135.00    45.00      -4.40   -1.39    0.37    0.00000   -54.74  LINEAR    2.98211E+01    87.18    4.21733E+01   -92.82
 -130.00    45.00      -5.33   -1.49    0.01    0.00000   -57.27  LINEAR    2.68128E+01    87.20    4.17133E+01   -92.80
 -125.00    45.00      -6.41   -1.58   -0.34    0.00000   -60.16  LINEAR    2.36718E+01    87.22    4.12706E+01   -92.78
 -120.00    45.00      -7.69   -1.67   -0.70    0.00000   -63.43  LINEAR    2.04291E+01    87.23    4.08582E+01   -92.77
 -115.00    45.00      -9.23   -1.75   -1.03    0.00000   -67.09  LINEAR    1.71110E+01    87.25    4.04881E+01   -92.75
 -110.00    45.00     -11.13   -1.81   -1.33    0.00000   -71.12  LINEAR    1.37391E+01    87.27    4.01704E+01   -92.73
 -105.00    45.00     -13.61   -1.87   -1.59    0.00000   -75.49  LINEAR    1.03305E+01    87.28    3.99141E+01   -92.72
 -100.00    45.00     -17.12   -1.91   -1.78    0.00000   -80.15  LINEAR    6.89834E+00    87.29    3.97259E+01   -92.71
  -95.00    45.00     -23.13   -1.94   -1.90    0.00000   -85.02  LINEAR    3.45233E+00    87.29    3.96110E+01   -92.71
  -90.00    45.00    -999.99   -1.95   -1.95    0.00000   -90.00  LINEAR    2.01954E-10    87.29    3.95724E+01   -92.71
  -85.00    45.00     -23.13   -1.94   -1.90    0.00000    85.02  LINEAR    3.45233E+00   -92.71    3.96110E+01   -92.71
  -80.00    45.00     -17.12   -1.91   -1.78    0.00000    80.15  LINEAR    6.89834E+00   -92.71    3.97259E+01   -92.71
  -75.00    45.00     -13.61   -1.87   -1.59    0.00000    75.49  LINEAR    1.03305E+01   -92.72    3.99141E+01   -92.72
  -70.00    45.00     -11.13   -1.81   -1.33    0.00000    71.12  LINEAR    1.37391E+01   -92.73    4.01704E+01   -92.73
  -65.00    45.00      -9.23   -1.75   -1.03    0.00000    67.09  LINEAR    1.71110E+01   -92.75    4.04881E+01   -92.75
  -60.00    45.00      -7.69   -1.67   -0.70    0.00000    63.43  LINEAR    2.04291E+01   -92.77    4.08582E+01   -92.77
  -55.00    45.00      -6.41   -1.58   -0.34    0.00000    60.16  LINEAR    2.36718E+01   -92.78    4.12706E+01   -92.78
  -50.00    45.00      -5.33   -1.49    0.01    0.00000    57.27  LINEAR    2.68128E+01   -92.80    4.17133E+01   -92.80
  -45.00    45.00      -4.40   -1.39    0.37    0.00000    54.74  LINEAR    2.98211E+01   -92.82    4.21733E+01   -92.82
  -40.00    45.00      -3.61   -1.30    0.71    0.00000    52.55  LINEAR    3.26618E+01   -92.84    4.26370E+01   -92.84
  -35.00    45.00      -2.94   -1.21    1.02    0.00000    50.68  LINEAR    3.52973E+01   -92.86    4.30900E+01   -92.86
  -30.00    45.00      -2.37   -1.12    1.31    0.00000    49.11  LINEAR    3.76879E+01   -92.88    4.35182E+01   -92.88
  -25.00    45.00      -1.90   -1.04    1.56    0.00000    47.81  LINEAR    3.97940E+01   -92.89    4.39078E+01   -92.89
  -20.00    45.00      -1.52   -0.98    1.77    0.00000    46.78  LINEAR    4.15777E+01   -92.91    4.42461E+01   -92.91
  -15.00    45.00      -1.22   -0.92    1.94    0.00000    45.99  LINEAR    4.30048E+01   -92.92    4.45219E+01   -92.92
  -10.00    45.00      -1.01   -0.88    2.06    0.00000    45.44  LINEAR    4.40463E+01   -92.92    4.47258E+01   -92.92
   -5.00    45.00      -0.89   -0.86    2.14    0.00000    45.11  LINEAR    4.46804E+01   -92.93    4.48511E+01   -92.93
    0.00    45.00      -0.85   -0.85    2.16    0.00000    45.00  LINEAR    4.48933E+01   -92.93    4.48933E+01   -92.93
 -180.00    50.00      -0.15   -1.68    2.16    0.00000   -40.00  LINEAR    4.86352E+01    87.07    4.08098E+01   -92.93
 -175.00    50.00      -0.20   -1.69    2.13    0.00000   -40.11  LINEAR    4.83966E+01    87.07    4.07647E+01   -92.93
 -170.00    50.00      -0.33   -1.72    2.05    0.00000   -40.43  LINEAR    4.76866E+01    87.08    4.06311E+01   -92.92
 -165.00    50.00      -0.54   -1.76    1.90    0.00000   -40.98  LINEAR    4.65220E+01    87.09    4.04137E+01   -92.91
 -160.00    50.00      -0.84   -1.83    1.70    0.00000   -41.76  LINEAR    4.49295E+01    87.10    4.01199E+01   -92.90
 -155.00    50.00      -1.23   -1.90    1.45    0.00000   -42.79  LINEAR    4.29443E+01    87.11    3.97598E+01   -92.89
 -150.00    50.00      -1.72   -2.00    1.15    0.00000   -44.10  LINEAR    4.06080E+01    87.13    3.93455E+01   -92.87
 -145.00    50.00      -2.31   -2.10    0.81    0.00000   -45.69  LINEAR    3.79662E+01    87.15    3.88907E+01   -92.85
 -140.00    50.00      -3.00   -2.20    0.43    0.00000   -47.61  LINEAR    3.50660E+01    87.17    3.84102E+01   -92.83
 -135.00    50.00      -3.80   -2.32    0.01    0.00000   -49.88  LINEAR    3.19542E+01    87.20    3.79190E+01   -92.80
 -130.00    50.00      -4.74   -2.43   -0.42    0.00000   -52.55  LINEAR    2.86748E+01    87.22    3.74323E+01   -92.78
 -125.00    50.00      -5.84   -2.54   -0.87    0.00000   -55.64  LINEAR    2.52676E+01    87.24    3.69646E+01   -92.76
 -120.00    50.00      -7.14   -2.64   -1.32    0.00000   -59.21  LINEAR    2.17671E+01    87.27    3.65295E+01   -92.73
 -115.00    50.00      -8.69   -2.73   -1.75    0.00000   -63.27  LINEAR    1.82019E+01    87.28    3.61394E+01   -92.72
 -110.00    50.00     -10.61   -2.81   -2.15    0.00000   -67.82  LINEAR    1.45943E+01    87.30    3.58050E+01   -92.70
 -105.00    50.00     -13.10   -2.88   -2.49    0.00000   -72.86  LINEAR    1.09608E+01    87.32    3.55354E+01   -92.68
 -100.00    50.00     -16.61   -2.93   -2.75    0.00000   -78.31  LINEAR    7.31298E+00    87.33    3.53377E+01   -92.67
  -95.00    50.00     -22.63   -2.96   -2.91    0.00000   -84.07  LINEAR    3.65792E+00    87.33    3.52169E+01   -92.67
  -90.00    50.00    -999.99   -2.97   -2.97    0.00000   -90.00  LINEAR    2.13943E-10    87.34    3.51763E+01   -92.66
  -85.00    50.00     -22.63   -2.96   -2.91    0.00000    84.07  LINEAR    3.65792E+00   -92.67    3.52169E+01   -92.67
  -80.00    50.00     -16.61   -2.93   -2.75    0.00000    78.31  LINEAR    7.31298E+00   -92.67    3.53377E+01   -92.67
  -75.00    50.00     -13.10   -2.88   -2.49    0.00000    72.86  LINEAR    1.09608E+01   -92.68    3.55354E+01   -92.68
  -70.00    50.00     -10.61   -2.81   -2.15    0.00000    67.82  LINEAR    1.45943E+01   -92.70    3.58050E+01   -92.70
  -65.00    50.00      -8.69   -2.73   -1.75    0.00000    63.27  LINEAR    1.82019E+01   -92.72    3.61394E+01   -92.72
  -60.00    50.00      -7.14   -2.64   -1.32    0.00000    59.21  LINEAR    2.17671E+01   -92.73    3.65295E+01   -92.73
  -55.00    50.00      -5.84   -2.54   -0.87    0.00000    55.64  LINEAR    2.52676E+01   -92.76    3.69646E+01   -92.76
  -50.00    50.00      -4.74   -2.43   -0.42    0.00000    52.55  LINEAR    2.86748E+01   -92.78    3.74323E+01   -92.78
  -45.00    50.00      -3.80   -2.32    0.01    0.00000    49.88  LINEAR    3.19542E+01   -92.80    3.79190E+01   -92.80
  -40.00    50.00      -3.00   -2.20    0.43    0.00000    47.61  LINEAR    3.50660E+01   -92.83    3.84102E+01   -92.83
  -35.00    50.00      -2.31   -2.10    0.81    0.00000    45.69  LINEAR    3.79662E+01   -92.85    3.88907E+01   -92.85
  -30.00    50.00      -1.72   -2.00    1.15    0.00000    44.10  LINEAR    4.06080E+01   -92.87    3.93455E+01   -92.87
  -25.00    50.00      -1.23   -1.90    1.45    0.00000    42.79  LINEAR    4.29443E+01   -92.89    3.97598E+01   -92.89
  -20.00    50.00      -0.84   -1.83    1.70    0.00000    41.76  LINEAR    4.49295E+01   -92.90    4.01199E+01   -92.90
  -15.00    50.00      -0.54   -1.76    1.90    0.00000    40.98  LINEAR    4.65220E+01   -92.91    4.04137E+01   -92.91
  -10.00    50.00      -0.33   -1.72    2.05    0.00000    40.43  LINEAR    4.76866E+01   -92.92    4.06311E+01   -92.92
   -5.00    50.00      -0.20   -1.69    2.13    0.00000    40.11  LINEAR    4.83966E+01   -92.93    4.07647E+01   -92.93
    0.00    50.00      -0.15   -1.68    2.16    0.00000    40.00  LINEAR    4.86352E+01   -92.93    4.08098E+01   -92.93
 -180.00    55.00       0.43   -2.67    2.16    0.00000   -35.00  LINEAR    5.20069E+01    87.07    3.64156E+01   -92.93
 -175.00    55.00       0.38   -2.68    2.13    0.00000   -35.10  LINEAR    5.17436E+01    87.07    3.63697E+01   -92.93
 -170.00    55.00       0.25   -2.71    2.03    0.00000   -35.41  LINEAR    5.09605E+01    87.08    3.62334E+01   -92.92
 -165.00    55.00       0.03   -2.76    1.86    0.00000   -35.94  LINEAR    4.96776E+01    87.09    3.60117E+01   -92.91
 -160.00    55.00      -0.28   -2.84    1.64    0.00000   -36.69  LINEAR    4.79266E+01    87.10    3.57123E+01   -92.90
 -155.00    55.00      -0.69   -2.93    1.35    0.00000   -37.69  LINEAR    4.57494E+01    87.12    3.53457E+01   -92.88
 -150.00    55.00      -1.18   -3.03    1.00    0.00000   -38.96  LINEAR    4.31949E+01    87.14    3.49244E+01   -92.86
 -145.00    55.00      -1.78   -3.15    0.60    0.00000   -40.52  LINEAR    4.03165E+01    87.16    3.44624E+01   -92.84
 -140.00    55.00      -2.49   -3.27    0.15    0.00000   -42.43  LINEAR    3.71692E+01    87.19    3.39748E+01   -92.81
 -135.00    55.00      -3.31   -3.40   -0.34    0.00000   -44.72  LINEAR    3.38069E+01    87.22    3.34770E+01   -92.78
 -130.00    55.00      -4.27   -3.53   -0.87    0.00000   -47.45  LINEAR    3.02796E+01    87.24    3.29845E+01   -92.76
 -125.00    55.00      -5.38   -3.65   -1.42    0.00000   -50.68  LINEAR    2.66321E+01    87.27    3.25118E+01   -92.73
 -120.00    55.00      -6.70   -3.77   -1.98    0.00000   -54.47  LINEAR    2.29022E+01    87.29    3.20727E+01   -92.71
 -115.00    55.00      -8.26   -3.88   -2.53    0.00000   -58.89  LINEAR    1.91204E+01    87.32    3.16793E+01   -92.68
 -110.00    55.00     -10.19   -3.97   -3.04    0.00000   -63.97  LINEAR    1.53094E+01    87.34    3.13426E+01   -92.66
 -105.00    55.00     -12.69   -4.05   -3.49    0.00000   -69.71  LINEAR    1.14849E+01    87.35    3.10712E+01   -92.65
 -100.00    55.00     -16.21   -4.10   -3.84    0.00000   -76.07  LINEAR    7.65620E+00    87.37    3.08724E+01   -92.63
  -95.00    55.00     -22.23   -4.14   -4.07    0.00000   -82.90  LINEAR    3.82762E+00    87.37    3.07510E+01   -92.63
  -90.00    55.00    -999.99   -4.15   -4.15    0.00000   -90.00  LINEAR    2.23829E-10    87.38    3.07102E+01   -92.62
  -85.00    55.00     -22.23   -4.14   -4.07    0.00000    82.90  LINEAR    3.82762E+00   -92.63    3.07510E+01   -92.63
  -80.00    55.00     -16.21   -4.10   -3.84    0.00000    76.07  LINEAR    7.65620E+00   -92.63    3.08724E+01   -92.63
  -75.00    55.00     -12.69   -4.05   -3.49    0.00000    69.71  LINEAR    1.14849E+01   -92.65    3.10712E+01   -92.65
  -70.00    55.00     -10.19   -3.97   -3.04    0.00000    63.97  LINEAR    1.53094E+01   -92.66    3.13426E+01   -92.66
  -65.00    55.00      -8.26   -3.88   -2.53    0.00000    58.89  LINEAR    1.91204E+01   -92.68    3.16793E+01   -92.68
  -60.00    55.00      -6.70   -3.77   -1.98    0.00000    54.47  LINEAR    2.29022E+01   -92.71    3.20727E+01   -92.71
  -55.00    55.00      -5.38   -3.65   -1.42    0.00000    50.68  LINEAR    2.66321E+01   -92.73    3.25118E+01   -92.73
  -50.00    55.00      -4.27   -3.53   -0.87    0.00000    47.45  LINEAR    3.02796E+01   -92.76    3.29845E+01   -92.76
  -45.00    55.00      -3.31   -3.40   -0.34    0.00000    44.72  LINEAR    3.38069E+01   -92.78    3.34770E+01   -92.78
  -40.00    55.00      -2.49   -3.27    0.15    0.00000    42.43  LINEAR    3.71692E+01   -92.81    3.39748E+01   -92.81
  -35.00    55.00      -1.78   -3.15    0.60    0.00000    40.52  LINEAR    4.03165E+01   -92.84    3.44624E+01   -92.84
  -30.00    55.00      -1.18   -3.03    1.00    0.00000    38.96  LINEAR    4.31949E+01   -92.86    3.49244E+01   -92.86
  -25.00    55.00      -0.69   -2.93    1.35    0.00000    37.69  LINEAR    4.57494E+01   -92.88    3.53457E+01   -92.88
  -20.00    55.00      -0.28   -2.84    1.64    0.00000    36.69  LINEAR    4.79266E+01   -92.90    3.57123E+01   -92.90
  -15.00    55.00       0.03   -2.76    1.86    0.00000    35.94  LINEAR    4.96776E+01   -92.91    3.60117E+01   -92.91
  -10.00    55.00       0.25   -2.71    2.03    0.00000    35.41  LINEAR    5.09605E+01   -92.92    3.62334E+01   -92.92
   -5.00    55.00       0.38   -2.68    2.13    0.00000    35.10  LINEAR    5.17436E+01   -92.93    3.63697E+01   -92.93
    0.00    55.00       0.43   -2.67    2.16    0.00000    35.00  LINEAR    5.20069E+01   -92.93    3.64156E+01   -92.93
 -180.00    60.00       0.91   -3.86    2.16    0.00000   -30.00  LINEAR    5.49829E+01    87.07    3.17444E+01   -92.93
 -175.00    60.00       0.87   -3.87    2.12    0.00000   -30.09  LINEAR    5.46963E+01    87.07    3.16996E+01   -92.93
 -170.00    60.00       0.73   -3.91    2.01    0.00000   -30.38  LINEAR    5.38447E+01    87.08    3.15668E+01   -92.92
 -165.00    60.00       0.50   -3.97    1.83    0.00000   -30.87  LINEAR    5.24512E+01    87.09    3.13510E+01   -92.91
 -160.00    60.00       0.18   -4.05    1.57    0.00000   -31.57  LINEAR    5.05525E+01    87.11    3.10596E+01   -92.89
 -155.00    60.00      -0.23   -4.15    1.25    0.00000   -32.50  LINEAR    4.81970E+01    87.13    3.07032E+01   -92.87
 -150.00    60.00      -0.74   -4.27    0.85    0.00000   -33.69  LINEAR    4.54408E+01    87.15    3.02939E+01   -92.85
 -145.00    60.00      -1.36   -4.40    0.39    0.00000   -35.18  LINEAR    4.23453E+01    87.18    2.98456E+01   -92.82
 -140.00    60.00      -2.08   -4.53   -0.12    0.00000   -37.00  LINEAR    3.89729E+01    87.20    2.93730E+01   -92.80
 -135.00    60.00      -2.92   -4.68   -0.70    0.00000   -39.23  LINEAR    3.53843E+01    87.23    2.88911E+01   -92.77
 -130.00    60.00      -3.89   -4.82   -1.32    0.00000   -41.93  LINEAR    3.16355E+01    87.27    2.84149E+01   -92.73
 -125.00    60.00      -5.02   -4.96   -1.98    0.00000   -45.19  LINEAR    2.77757E+01    87.29    2.79585E+01   -92.71
 -120.00    60.00      -6.34   -5.10   -2.66    0.00000   -49.11  LINEAR    2.38459E+01    87.32    2.75349E+01   -92.68
 -115.00    60.00      -7.93   -5.22   -3.35    0.00000   -53.80  LINEAR    1.98781E+01    87.35    2.71560E+01   -92.65
 -110.00    60.00      -9.87   -5.32   -4.01    0.00000   -59.36  LINEAR    1.58951E+01    87.37    2.68318E+01   -92.63
 -105.00    60.00     -12.37   -5.40   -4.61    0.00000   -65.85  LINEAR    1.19114E+01    87.39    2.65709E+01   -92.61
 -100.00    60.00     -15.90   -5.47   -5.09    0.00000   -73.26  LINEAR    7.93418E+00    87.41    2.63798E+01   -92.59
  -95.00    60.00     -21.93   -5.51   -5.41    0.00000   -81.42  LINEAR    3.96465E+00    87.41    2.62632E+01   -92.59
  -90.00    60.00    -999.99   -5.52   -5.52    0.00000   -90.00  LINEAR    2.31804E-10    87.42    2.62240E+01   -92.58
  -85.00    60.00     -21.93   -5.51   -5.41    0.00000    81.42  LINEAR    3.96465E+00   -92.59    2.62632E+01   -92.59
  -80.00    60.00     -15.90   -5.47   -5.09    0.00000    73.26  LINEAR    7.93418E+00   -92.59    2.63798E+01   -92.59
  -75.00    60.00     -12.37   -5.40   -4.61    0.00000    65.85  LINEAR    1.19114E+01   -92.61    2.65709E+01   -92.61
  -70.00    60.00      -9.87   -5.32   -4.01    0.00000    59.36  LINEAR    1.58951E+01   -92.63    2.68318E+01   -92.63
  -65.00    60.00      -7.93   -5.22   -3.35    0.00000    53.80  LINEAR    1.98781E+01   -92.65    2.71560E+01   -92.65
  -60.00    60.00      -6.34   -5.10   -2.66    0.00000    49.11  LINEAR    2.38459E+01   -92.68    2.75349E+01   -92.68
  -55.00    60.00      -5.02   -4.96   -1.98    0.00000    45.19  LINEAR    2.77757E+01   -92.71    2.79585E+01   -92.71
  -50.00    60.00      -3.89   -4.82   -1.32    0.00000    41.93  LINEAR    3.16355E+01   -92.73    2.84149E+01   -92.73
  -45.00    60.00      -2.92   -4.68   -0.70    0.00000    39.23  LINEAR    3.53843E+01   -92.77    2.88911E+01   -92.77
  -40.00    60.00      -2.08   -4.53   -0.12    0.00000    37.00  LINEAR    3.89729E+01   -92.80    2.93730E+01   -92.80
  -35.00    60.00      -1.36   -4.40    0.39    0.00000    35.18  LINEAR    4.23453E+01   -92.82    2.98456E+01   -92.82
  -30.00    60.00      -0.74   -4.27    0.85    0.00000    33.69  LINEAR    4.54408E+01   -92.85    3.02939E+01   -92.85
  -25.00    60.00      -0.23   -4.15    1.25    0.00000    32.50  LINEAR    4.81970E+01   -92.87    3.07032E+01   -92.87
  -20.00    60.00       0.18   -4.05    1.57    0.00000    31.57  LINEAR    5.05525E+01   -92.89    3.10596E+01   -92.89
  -15.00    60.00       0.50   -3.97    1.83    0.00000    30.87  LINEAR    5.24512E+01   -92.91    3.13510E+01   -92.91
  -10.00    60.00       0.73   -3.91    2.01    0.00000    30.38  LINEAR    5.38447E+01   -92.92    3.15668E+01   -92.92
   -5.00    60.00       0.87   -3.87    2.12    0.00000    30.09  LINEAR    5.46963E+01   -92.93    3.16996E+01   -92.93
    0.00    60.00       0.91   -3.86    2.16    0.00000    30.00  LINEAR    5.49829E+01   -92.93    3.17444E+01   -92.93
 -180.00    65.00       1.31   -5.32    2.16    0.00000   -25.00  LINEAR    5.75403E+01    87.07    2.68315E+01   -92.93
 -175.00    65.00       1.26   -5.33    2.12    0.00000   -25.08  LINEAR    5.72328E+01    87.07    2.67900E+01   -92.93
 -170.00    65.00       1.12   -5.37    2.00    0.00000   -25.34  LINEAR    5.63192E+01    87.08    2.66672E+01   -92.92
 -165.00    65.00       0.89   -5.44    1.80    0.00000   -25.77  LINEAR    5.48256E+01    87.09    2.64675E+01   -92.91
 -160.00    65.00       0.56   -5.53    1.51    0.00000   -26.39  LINEAR    5.27939E+01    87.11    2.61981E+01   -92.89
 -155.00    65.00       0.13   -5.64    1.15    0.00000   -27.23  LINEAR    5.02781E+01    87.13    2.58688E+01   -92.87
 -150.00    65.00      -0.39   -5.77    0.72    0.00000   -28.30  LINEAR    4.73417E+01    87.16    2.54909E+01   -92.84
 -145.00    65.00      -1.01   -5.91    0.21    0.00000   -29.65  LINEAR    4.40530E+01    87.19    2.50774E+01   -92.81
 -140.00    65.00      -1.75   -6.06   -0.38    0.00000   -31.33  LINEAR    4.04816E+01    87.22    2.46420E+01   -92.78
 -135.00    65.00      -2.60   -6.22   -1.03    0.00000   -33.40  LINEAR    3.66947E+01    87.25    2.41986E+01   -92.75
 -130.00    65.00      -3.59   -6.38   -1.75    0.00000   -35.96  LINEAR    3.27534E+01    87.28    2.37608E+01   -92.72
 -125.00    65.00      -4.73   -6.53   -2.53    0.00000   -39.11  LINEAR    2.87112E+01    87.32    2.33417E+01   -92.68
 -120.00    65.00      -6.07   -6.68   -3.35    0.00000   -43.00  LINEAR    2.46117E+01    87.35    2.29532E+01   -92.65
 -115.00    65.00      -7.66   -6.81   -4.20    0.00000   -47.81  LINEAR    2.04880E+01    87.38    2.26060E+01   -92.62
 -110.00    65.00      -9.62   -6.92   -5.05    0.00000   -53.74  LINEAR    1.63631E+01    87.40    2.23093E+01   -92.60
 -105.00    65.00     -12.13   -7.02   -5.85    0.00000   -60.97  LINEAR    1.22500E+01    87.43    2.20706E+01   -92.57
 -100.00    65.00     -15.67   -7.09   -6.52    0.00000   -69.58  LINEAR    8.15377E+00    87.44    2.18958E+01   -92.56
  -95.00    65.00     -21.70   -7.13   -6.98    0.00000   -79.41  LINEAR    4.07255E+00    87.45    2.17893E+01   -92.55
  -90.00    65.00    -999.99   -7.14   -7.14    0.00000   -90.00  LINEAR    2.38077E-10    87.45    2.17535E+01   -92.55
  -85.00    65.00     -21.70   -7.13   -6.98    0.00000    79.41  LINEAR    4.07255E+00   -92.55    2.17893E+01   -92.55
  -80.00    65.00     -15.67   -7.09   -6.52    0.00000    69.58  LINEAR    8.15377E+00   -92.56    2.18958E+01   -92.56
  -75.00    65.00     -12.13   -7.02   -5.85    0.00000    60.97  LINEAR    1.22500E+01   -92.57    2.20706E+01   -92.57
  -70.00    65.00      -9.62   -6.92   -5.05    0.00000    53.74  LINEAR    1.63631E+01   -92.60    2.23093E+01   -92.60
  -65.00    65.00      -7.66   -6.81   -4.20    0.00000    47.81  LINEAR    2.04880E+01   -92.62    2.26060E+01   -92.62
  -60.00    65.00      -6.07   -6.68   -3.35    0.00000    43.00  LINEAR    2.46117E+01   -92.65    2.29532E+01   -92.65
  -55.00    65.00      -4.73   -6.53   -2.53    0.00000    39.11  LINEAR    2.87112E+01   -92.68    2.33417E+01   -92.68
  -50.00    65.00      -3.59   -6.38   -1.75    0.00000    35.96  LINEAR    3.27534E+01   -92.72    2.37608E+01   -92.72
  -45.00    65.00      -2.60   -6.22   -1.03    0.00000    33.40  LINEAR    3.66947E+01   -92.75    2.41986E+01   -92.75
  -40.00    65.00      -1.75   -6.06   -0.38    0.00000    31.33  LINEAR    4.04816E+01   -92.78    2.46420E+01   -92.78
  -35.00    65.00      -1.01   -5.91    0.21    0.00000    29.65  LINEAR    4.40530E+01   -92.81    2.50774E+01   -92.81
  -30.00    65.00      -0.39   -5.77    0.72    0.00000    28.30  LINEAR    4.73417E+01   -92.84    2.54909E+01   -92.84
  -25.00    65.00       0.13   -5.64    1.15    0.00000    27.23  LINEAR    5.02781E+01   -92.87    2.58688E+01   -92.87
  -20.00    65.00       0.56   -5.53    1.51    0.00000    26.39  LINEAR    5.27939E+01   -92.89    2.61981E+01   -92.89
  -15.00    65.00       0.89   -5.44    1.80    0.00000    25.77  LINEAR    5.48256E+01   -92.91    2.64675E+01   -92.91
  -10.00    65.00       1.12   -5.37    2.00    0.00000    25.34  LINEAR    5.63192E+01   -92.92    2.66672E+01   -92.92
   -5.00    65.00       1.26   -5.33    2.12    0.00000    25.08  LINEAR    5.72328E+01   -92.93    2.67900E+01   -92.93
    0.00    65.00       1.31   -5.32    2.16    0.00000    25.00  LINEAR    5.75403E+01   -92.93    2.68315E+01   -92.93
 -180.00    70.00       1.62   -7.16    2.16    0.00000   -20.00  LINEAR    5.96599E+01    87.07    2.17144E+01   -92.93
 -175.00    70.00       1.57   -7.17    2.12    0.00000   -20.07  LINEAR    5.93342E+01    87.07    2.16784E+01   -92.93
 -170.00    70.00       1.43   -7.22    1.99    0.00000   -20.28  LINEAR    5.83668E+01    87.08    2.15715E+01   -92.92
 -165.00    70.00       1.19   -7.29    1.77    0.00000   -20.65  LINEAR    5.67869E+01    87.09    2.13978E+01   -92.91
 -160.00    70.00       0.86   -7.38    1.46    0.00000   -21.17  LINEAR    5.46402E+01    87.11    2.11637E+01   -92.89
 -155.00    70.00       0.42   -7.50    1.07    0.00000   -21.88  LINEAR    5.19866E+01    87.14    2.08777E+01   -92.86
 -150.00    70.00      -0.11   -7.64    0.60    0.00000   -22.80  LINEAR    4.88956E+01    87.16    2.05497E+01   -92.84
 -145.00    70.00      -0.74   -7.79    0.04    0.00000   -23.96  LINEAR    4.54422E+01    87.20    2.01911E+01   -92.80
 -140.00    70.00      -1.49   -7.95   -0.61    0.00000   -25.41  LINEAR    4.17020E+01    87.23    1.98139E+01   -92.77
 -135.00    70.00      -2.36   -8.12   -1.33    0.00000   -27.24  LINEAR    3.77479E+01    87.27    1.94300E+01   -92.73
 -130.00    70.00      -3.35   -8.29   -2.15    0.00000   -29.52  LINEAR    3.36457E+01    87.30    1.90515E+01   -92.70
 -125.00    70.00      -4.51   -8.46   -3.04    0.00000   -32.40  LINEAR    2.94524E+01    87.34    1.86894E+01   -92.66
 -120.00    70.00      -5.86   -8.62   -4.01    0.00000   -36.05  LINEAR    2.52137E+01    87.37    1.83541E+01   -92.63
 -115.00    70.00      -7.46   -8.76   -5.05    0.00000   -40.74  LINEAR    2.09638E+01    87.40    1.80546E+01   -92.60
 -110.00    70.00      -9.43   -8.89   -6.14    0.00000   -46.78  LINEAR    1.67255E+01    87.43    1.77989E+01   -92.57
 -105.00    70.00     -11.95   -8.99   -7.21    0.00000   -54.58  LINEAR    1.25106E+01    87.46    1.75933E+01   -92.54
 -100.00    70.00     -15.49   -9.06   -8.17    0.00000   -64.49  LINEAR    8.32193E+00    87.47    1.74429E+01   -92.53
  -95.00    70.00     -21.52   -9.11   -8.86    0.00000   -76.53  LINEAR    4.15491E+00    87.48    1.73513E+01   -92.52
  -90.00    70.00    -999.99   -9.12   -9.12    0.00000   -90.00  LINEAR    2.42859E-10    87.49    1.73205E+01   -92.51
  -85.00    70.00     -21.52   -9.11   -8.86    0.00000    76.53  LINEAR    4.15491E+00   -92.52    1.73513E+01   -92.52
  -80.00    70.00     -15.49   -9.06   -8.17    0.00000    64.49  LINEAR    8.32193E+00   -92.53    1.74429E+01   -92.53
  -75.00    70.00     -11.95   -8.99   -7.21    0.00000    54.58  LINEAR    1.25106E+01   -92.54    1.75933E+01   -92.54
  -70.00    70.00      -9.43   -8.89   -6.14    0.00000    46.78  LINEAR    1.67255E+01   -92.57    1.77989E+01   -92.57
  -65.00    70.00      -7.46   -8.76   -5.05    0.00000    40.74  LINEAR    2.09638E+01   -92.60    1.80546E+01   -92.60
  -60.00    70.00      -5.86   -8.62   -4.01    0.00000    36.05  LINEAR    2.52137E+01   -92.63    1.83541E+01   -92.63
  -55.00    70.00      -4.51   -8.46   -3.04    0.00000    32.40  LINEAR    2.94524E+01   -92.66    1.86894E+01   -92.66
  -50.00    70.00      -3.35   -8.29   -2.15    0.00000    29.52  LINEAR    3.36457E+01   -92.70    1.90515E+01   -92.70
  -45.00    70.00      -2.36   -8.12   -1.33    0.00000    27.24  LINEAR    3.77479E+01   -92.73    1.94300E+01   -92.73
  -40.00    70.00      -1.49   -7.95   -0.61    0.00000    25.41  LINEAR    4.17020E+01   -92.77    1.98139E+01   -92.77
  -35.00    70.00      -0.74   -7.79    0.04    0.00000    23.96  LINEAR    4.54422E+01   -92.80    2.01911E+01   -92.80
  -30.00    70.00      -0.11   -7.64    0.60    0.00000    22.80  LINEAR    4.88956E+01   -92.84    2.05497E+01   -92.84
  -25.00    70.00       0.42   -7.50    1.07    0.00000    21.88  LINEAR    5.19866E+01   -92.86    2.08777E+01   -92.86
  -20.00    70.00       0.86   -7.38    1.46    0.00000    21.17  LINEAR    5.46402E+01   -92.89    2.11637E+01   -92.89
  -15.00    70.00       1.19   -7.29    1.77    0.00000    20.65  LINEAR    5.67869E+01   -92.91    2.13978E+01   -92.91
  -10.00    70.00       1.43   -7.22    1.99    0.00000    20.28  LINEAR    5.83668E+01   -92.92    2.15715E+01   -92.92
   -5.00    70.00       1.57   -7.17    2.12    0.00000    20.07  LINEAR    5.93342E+01   -92.93    2.16784E+01   -92.93
    0.00    70.00       1.62   -7.16    2.16    0.00000    20.00  LINEAR    5.96599E+01   -92.93    2.17144E+01   -92.93
 -180.00    75.00       1.86   -9.58    2.16    0.00000   -15.00  LINEAR    6.13254E+01    87.07    1.64321E+01   -92.93
 -175.00    75.00       1.81   -9.59    2.11    0.00000   -15.05  LINEAR    6.09848E+01    87.07    1.64033E+01   -92.93
 -170.00    75.00       1.67   -9.64    1.98    0.00000   -15.22  LINEAR    5.99738E+01    87.08    1.63178E+01   -92.92
 -165.00    75.00       1.42   -9.71    1.75    0.00000   -15.50  LINEAR    5.83235E+01    87.10    1.61790E+01   -92.90
 -160.00    75.00       1.08   -9.81    1.42    0.00000   -15.92  LINEAR    5.60836E+01    87.12    1.59920E+01   -92.88
 -155.00    75.00       0.64   -9.94    1.01    0.00000   -16.47  LINEAR    5.33185E+01    87.14    1.57636E+01   -92.86
 -150.00    75.00       0.10  -10.09    0.50    0.00000   -17.19  LINEAR    5.01027E+01    87.17    1.55018E+01   -92.83
 -145.00    75.00      -0.54  -10.25   -0.10    0.00000   -18.11  LINEAR    4.65167E+01    87.20    1.52159E+01   -92.80
 -140.00    75.00      -1.30  -10.42   -0.80    0.00000   -19.28  LINEAR    4.26414E+01    87.24    1.49152E+01   -92.76
 -135.00    75.00      -2.17  -10.60   -1.59    0.00000   -20.75  LINEAR    3.85541E+01    87.28    1.46096E+01   -92.72
 -130.00    75.00      -3.18  -10.78   -2.49    0.00000   -22.63  LINEAR    3.43246E+01    87.32    1.43084E+01   -92.68
 -125.00    75.00      -4.35  -10.96   -3.49    0.00000   -25.04  LINEAR    3.00125E+01    87.35    1.40205E+01   -92.65
 -120.00    75.00      -5.71  -11.12   -4.61    0.00000   -28.19  LINEAR    2.56655E+01    87.39    1.37541E+01   -92.61
 -115.00    75.00      -7.32  -11.28   -5.85    0.00000   -32.38  LINEAR    2.13185E+01    87.43    1.35164E+01   -92.57
 -110.00    75.00      -9.29  -11.41   -7.21    0.00000   -38.08  LINEAR    1.69939E+01    87.46    1.33135E+01   -92.54
 -105.00    75.00     -11.82  -11.51   -8.65    0.00000   -45.99  LINEAR    1.27024E+01    87.48    1.31505E+01   -92.52
 -100.00    75.00     -15.36  -11.59  -10.07    0.00000   -57.05  LINEAR    8.44512E+00    87.50    1.30313E+01   -92.50
  -95.00    75.00     -21.40  -11.64  -11.20    0.00000   -71.98  LINEAR    4.21506E+00    87.51    1.29587E+01   -92.49
  -90.00    75.00    -999.99  -11.66  -11.66    0.00000   -90.00  LINEAR    2.46349E-10    87.51    1.29343E+01   -92.49
  -85.00    75.00     -21.40  -11.64  -11.20    0.00000    71.98  LINEAR    4.21506E+00   -92.49    1.29587E+01   -92.49
  -80.00    75.00     -15.36  -11.59  -10.07    0.00000    57.05  LINEAR    8.44512E+00   -92.50    1.30313E+01   -92.50
  -75.00    75.00     -11.82  -11.51   -8.65    0.00000    45.99  LINEAR    1.27024E+01   -92.52    1.31505E+01   -92.52
  -70.00    75.00      -9.29  -11.41   -7.21    0.00000    38.08  LINEAR    1.69939E+01   -92.54    1.33135E+01   -92.54
  -65.00    75.00      -7.32  -11.28   -5.85    0.00000    32.38  LINEAR    2.13185E+01   -92.57    1.35164E+01   -92.57
  -60.00    75.00      -5.71  -11.12   -4.61    0.00000    28.19  LINEAR    2.56655E+01   -92.61    1.37541E+01   -92.61
  -55.00    75.00      -4.35  -10.96   -3.49    0.00000    25.04  LINEAR    3.00125E+01   -92.65    1.40205E+01   -92.65
  -50.00    75.00      -3.18  -10.78   -2.49    0.00000    22.63  LINEAR    3.43246E+01   -92.68    1.43084E+01   -92.68
  -45.00    75.00      -2.17  -10.60   -1.59    0.00000    20.75  LINEAR    3.85541E+01   -92.72    1.46096E+01   -92.72
  -40.00    75.00      -1.30  -10.42   -0.80    0.00000    19.28  LINEAR    4.26414E+01   -92.76    1.49152E+01   -92.76
[...]
  -70.00   340.00     -16.70    1.40    1.46    0.00000   -82.90  LINEAR    7.23842E+00    87.11    5.81469E+01   -92.89
  -65.00   340.00     -14.85    1.41    1.51    0.00000   -81.26  LINEAR    8.96029E+00    87.11    5.82516E+01   -92.89
  -60.00   340.00     -13.37    1.43    1.57    0.00000   -79.69  LINEAR    1.06230E+01    87.11    5.83730E+01   -92.89
  -55.00   340.00     -12.16    1.45    1.64    0.00000   -78.21  LINEAR    1.22143E+01    87.10    5.85076E+01   -92.90
  -50.00   340.00     -11.14    1.47    1.70    0.00000   -76.83  LINEAR    1.37218E+01    87.10    5.86513E+01   -92.90
  -45.00   340.00     -10.29    1.49    1.77    0.00000   -75.57  LINEAR    1.51331E+01    87.09    5.87998E+01   -92.91
  -40.00   340.00      -9.58    1.52    1.84    0.00000   -74.42  LINEAR    1.64359E+01    87.09    5.89485E+01   -92.91
  -35.00   340.00      -8.97    1.54    1.91    0.00000   -73.40  LINEAR    1.76184E+01    87.09    5.90929E+01   -92.91
  -30.00   340.00      -8.47    1.56    1.97    0.00000   -72.50  LINEAR    1.86693E+01    87.08    5.92287E+01   -92.92
  -25.00   340.00      -8.06    1.58    2.02    0.00000   -71.74  LINEAR    1.95783E+01    87.08    5.93516E+01   -92.92
  -20.00   340.00      -7.73    1.59    2.07    0.00000   -71.12  LINEAR    2.03358E+01    87.08    5.94579E+01   -92.92
  -15.00   340.00      -7.48    1.60    2.11    0.00000   -70.63  LINEAR    2.09338E+01    87.07    5.95441E+01   -92.93
  -10.00   340.00      -7.30    1.61    2.14    0.00000   -70.28  LINEAR    2.13659E+01    87.07    5.96078E+01   -92.93
   -5.00   340.00      -7.19    1.62    2.16    0.00000   -70.07  LINEAR    2.16270E+01    87.07    5.96468E+01   -92.93
    0.00   340.00      -7.16    1.62    2.16    0.00000   -70.00  LINEAR    2.17144E+01    87.07    5.96599E+01   -92.93
 -180.00   345.00      -9.58    1.86    2.16    0.00000    75.00  LINEAR    1.64321E+01   -92.93    6.13254E+01   -92.93
 -175.00   345.00      -9.61    1.86    2.16    0.00000    75.05  LINEAR    1.63675E+01   -92.93    6.13177E+01   -92.93
 -170.00   345.00      -9.72    1.86    2.15    0.00000    75.22  LINEAR    1.61744E+01   -92.93    6.12947E+01   -92.93
 -165.00   345.00      -9.89    1.85    2.13    0.00000    75.49  LINEAR    1.58545E+01   -92.93    6.12573E+01   -92.93
 -160.00   345.00     -10.14    1.84    2.11    0.00000    75.87  LINEAR    1.54112E+01   -92.93    6.12064E+01   -92.93
 -155.00   345.00     -10.46    1.83    2.08    0.00000    76.35  LINEAR    1.48484E+01   -92.93    6.11438E+01   -92.93
 -150.00   345.00     -10.86    1.82    2.05    0.00000    76.94  LINEAR    1.41716E+01   -92.92    6.10713E+01   -92.92
 -145.00   345.00     -11.36    1.81    2.02    0.00000    77.62  LINEAR    1.33870E+01   -92.92    6.09912E+01   -92.92
 -140.00   345.00     -11.95    1.80    1.98    0.00000    78.40  LINEAR    1.25016E+01   -92.92    6.09059E+01   -92.92
 -135.00   345.00     -12.66    1.79    1.94    0.00000    79.27  LINEAR    1.15231E+01   -92.92    6.08180E+01   -92.92
 -130.00   345.00     -13.50    1.78    1.90    0.00000    80.23  LINEAR    1.04598E+01   -92.91    6.07302E+01   -92.91
 -125.00   345.00     -14.50    1.76    1.86    0.00000    81.26  LINEAR    9.32051E+00   -92.91    6.06451E+01   -92.91
 -120.00   345.00     -15.71    1.75    1.83    0.00000    82.37  LINEAR    8.11422E+00   -92.91    6.05654E+01   -92.91
 -115.00   345.00     -17.18    1.74    1.80    0.00000    83.54  LINEAR    6.85029E+00   -92.91    6.04934E+01   -92.91
 -110.00   345.00     -19.03    1.73    1.77    0.00000    84.76  LINEAR    5.53817E+00   -92.91    6.04313E+01   -92.91
 -105.00   345.00     -21.45    1.73    1.75    0.00000    86.03  LINEAR    4.18744E+00   -92.90    6.03810E+01   -92.90
 -100.00   345.00     -24.93    1.72    1.73    0.00000    87.34  LINEAR    2.80773E+00   -92.90    6.03439E+01   -92.90
  -95.00   345.00     -30.92    1.72    1.72    0.00000    88.66  LINEAR    1.40870E+00   -92.90    6.03212E+01   -92.90
  -90.00   345.00    -999.99    1.72    1.72    0.00000    90.00  LINEAR    8.24761E-11   -92.90    6.03136E+01   -92.90
  -85.00   345.00     -30.92    1.72    1.72    0.00000   -88.66  LINEAR    1.40870E+00    87.10    6.03212E+01   -92.90
  -80.00   345.00     -24.93    1.72    1.73    0.00000   -87.34  LINEAR    2.80773E+00    87.10    6.03439E+01   -92.90
  -75.00   345.00     -21.45    1.73    1.75    0.00000   -86.03  LINEAR    4.18744E+00    87.10    6.03810E+01   -92.90
  -70.00   345.00     -19.03    1.73    1.77    0.00000   -84.76  LINEAR    5.53817E+00    87.09    6.04313E+01   -92.91
  -65.00   345.00     -17.18    1.74    1.80    0.00000   -83.54  LINEAR    6.85029E+00    87.09    6.04934E+01   -92.91
  -60.00   345.00     -15.71    1.75    1.83    0.00000   -82.37  LINEAR    8.11422E+00    87.09    6.05654E+01   -92.91
  -55.00   345.00     -14.50    1.76    1.86    0.00000   -81.26  LINEAR    9.32051E+00    87.09    6.06451E+01   -92.91
  -50.00   345.00     -13.50    1.78    1.90    0.00000   -80.23  LINEAR    1.04598E+01    87.09    6.07302E+01   -92.91
  -45.00   345.00     -12.66    1.79    1.94    0.00000   -79.27  LINEAR    1.15231E+01    87.08    6.08180E+01   -92.92
  -40.00   345.00     -11.95    1.80    1.98    0.00000   -78.40  LINEAR    1.25016E+01    87.08    6.09059E+01   -92.92
  -35.00   345.00     -11.36    1.81    2.02    0.00000   -77.62  LINEAR    1.33870E+01    87.08    6.09912E+01   -92.92
  -30.00   345.00     -10.86    1.82    2.05    0.00000   -76.94  LINEAR    1.41716E+01    87.08    6.10713E+01   -92.92
  -25.00   345.00     -10.46    1.83    2.08    0.00000   -76.35  LINEAR    1.48484E+01    87.07    6.11438E+01   -92.93
  -20.00   345.00     -10.14    1.84    2.11    0.00000   -75.87  LINEAR    1.54112E+01    87.07    6.12064E+01   -92.93
  -15.00   345.00      -9.89    1.85    2.13    0.00000   -75.49  LINEAR    1.58545E+01    87.07    6.12573E+01   -92.93
  -10.00   345.00      -9.72    1.86    2.15    0.00000   -75.22  LINEAR    1.61744E+01    87.07    6.12947E+01   -92.93
   -5.00   345.00      -9.61    1.86    2.16    0.00000   -75.05  LINEAR    1.63675E+01    87.07    6.13177E+01   -92.93
    0.00   345.00      -9.58    1.86    2.16    0.00000   -75.00  LINEAR    1.64321E+01    87.07    6.13254E+01   -92.93
 -180.00   350.00     -13.05    2.03    2.16    0.00000    80.00  LINEAR    1.10247E+01   -92.93    6.25242E+01   -92.93
 -175.00   350.00     -13.08    2.03    2.16    0.00000    80.04  LINEAR    1.09821E+01   -92.93    6.25206E+01   -92.93
 -170.00   350.00     -13.18    2.03    2.16    0.00000    80.15  LINEAR    1.08548E+01   -92.93    6.25101E+01   -92.93
 -165.00   350.00     -13.35    2.02    2.15    0.00000    80.33  LINEAR    1.06437E+01   -92.93    6.24929E+01   -92.93
 -160.00   350.00     -13.59    2.02    2.14    0.00000    80.59  LINEAR    1.03508E+01   -92.93    6.24696E+01   -92.93
 -155.00   350.00     -13.91    2.02    2.13    0.00000    80.92  LINEAR    9.97845E+00   -92.93    6.24408E+01   -92.93
 -150.00   350.00     -14.31    2.01    2.11    0.00000    81.32  LINEAR    9.52985E+00   -92.93    6.24075E+01   -92.93
 -145.00   350.00     -14.80    2.01    2.10    0.00000    81.78  LINEAR    9.00873E+00   -92.93    6.23706E+01   -92.93
 -140.00   350.00     -15.39    2.00    2.08    0.00000    82.31  LINEAR    8.41937E+00   -92.92    6.23314E+01   -92.92
 -135.00   350.00     -16.09    2.00    2.06    0.00000    82.89  LINEAR    7.76656E+00   -92.92    6.22909E+01   -92.92
 -130.00   350.00     -16.92    1.99    2.05    0.00000    83.53  LINEAR    7.05552E+00   -92.92    6.22505E+01   -92.92
 -125.00   350.00     -17.92    1.98    2.03    0.00000    84.22  LINEAR    6.29186E+00   -92.92    6.22113E+01   -92.92
 -120.00   350.00     -19.11    1.98    2.01    0.00000    84.96  LINEAR    5.48152E+00   -92.92    6.21745E+01   -92.92
 -115.00   350.00     -20.58    1.97    2.00    0.00000    85.74  LINEAR    4.63071E+00   -92.92    6.21413E+01   -92.92
 -110.00   350.00     -22.42    1.97    1.99    0.00000    86.55  LINEAR    3.74585E+00   -92.92    6.21127E+01   -92.92
 -105.00   350.00     -24.85    1.97    1.98    0.00000    87.39  LINEAR    2.83356E+00   -92.92    6.20894E+01   -92.92
 -100.00   350.00     -28.32    1.97    1.97    0.00000    88.25  LINEAR    1.90058E+00   -92.92    6.20723E+01   -92.92
  -95.00   350.00     -34.30    1.96    1.96    0.00000    89.12  LINEAR    9.53761E-01   -92.92    6.20618E+01   -92.92
  -90.00   350.00    -999.99    1.96    1.96    0.00000    90.00  LINEAR    5.58444E-11   -92.92    6.20583E+01   -92.92
  -85.00   350.00     -34.30    1.96    1.96    0.00000   -89.12  LINEAR    9.53761E-01    87.08    6.20618E+01   -92.92
  -80.00   350.00     -28.32    1.97    1.97    0.00000   -88.25  LINEAR    1.90058E+00    87.08    6.20723E+01   -92.92
  -75.00   350.00     -24.85    1.97    1.98    0.00000   -87.39  LINEAR    2.83356E+00    87.08    6.20894E+01   -92.92
  -70.00   350.00     -22.42    1.97    1.99    0.00000   -86.55  LINEAR    3.74585E+00    87.08    6.21127E+01   -92.92
  -65.00   350.00     -20.58    1.97    2.00    0.00000   -85.74  LINEAR    4.63071E+00    87.08    6.21413E+01   -92.92
  -60.00   350.00     -19.11    1.98    2.01    0.00000   -84.96  LINEAR    5.48152E+00    87.08    6.21745E+01   -92.92
  -55.00   350.00     -17.92    1.98    2.03    0.00000   -84.22  LINEAR    6.29186E+00    87.08    6.22113E+01   -92.92
  -50.00   350.00     -16.92    1.99    2.05    0.00000   -83.53  LINEAR    7.05552E+00    87.08    6.22505E+01   -92.92
  -45.00   350.00     -16.09    2.00    2.06    0.00000   -82.89  LINEAR    7.76656E+00    87.08    6.22909E+01   -92.92
  -40.00   350.00     -15.39    2.00    2.08    0.00000   -82.31  LINEAR    8.41937E+00    87.08    6.23314E+01   -92.92
  -35.00   350.00     -14.80    2.01    2.10    0.00000   -81.78  LINEAR    9.00873E+00    87.07    6.23706E+01   -92.93
  -30.00   350.00     -14.31    2.01    2.11    0.00000   -81.32  LINEAR    9.52985E+00    87.07    6.24075E+01   -92.93
  -25.00   350.00     -13.91    2.02    2.13    0.00000   -80.92  LINEAR    9.97845E+00    87.07    6.24408E+01   -92.93
  -20.00   350.00     -13.59    2.02    2.14    0.00000   -80.59  LINEAR    1.03508E+01    87.07    6.24696E+01   -92.93
  -15.00   350.00     -13.35    2.02    2.15    0.00000   -80.33  LINEAR    1.06437E+01    87.07    6.24929E+01   -92.93
  -10.00   350.00     -13.18    2.03    2.16    0.00000   -80.15  LINEAR    1.08548E+01    87.07    6.25101E+01   -92.93
   -5.00   350.00     -13.08    2.03    2.16    0.00000   -80.04  LINEAR    1.09821E+01    87.07    6.25206E+01   -92.93
    0.00   350.00     -13.05    2.03    2.16    0.00000   -80.00  LINEAR    1.10247E+01    87.07    6.25242E+01   -92.93
 -180.00   355.00     -19.03    2.13    2.16    0.00000    85.00  LINEAR    5.53341E+00   -92.93    6.32471E+01   -92.93
 -175.00   355.00     -19.07    2.13    2.16    0.00000    85.02  LINEAR    5.51227E+00   -92.93    6.32462E+01   -92.93
 -170.00   355.00     -19.17    2.13    2.16    0.00000    85.08  LINEAR    5.44903E+00   -92.93    6.32435E+01   -92.93
 -165.00   355.00     -19.34    2.13    2.16    0.00000    85.17  LINEAR    5.34419E+00   -92.93    6.32392E+01   -92.93
 -160.00   355.00     -19.58    2.13    2.16    0.00000    85.30  LINEAR    5.19856E+00   -92.93    6.32332E+01   -92.93
 -155.00   355.00     -19.89    2.12    2.15    0.00000    85.47  LINEAR    5.01329E+00   -92.93    6.32259E+01   -92.93
 -150.00   355.00     -20.29    2.12    2.15    0.00000    85.67  LINEAR    4.78982E+00   -92.93    6.32174E+01   -92.93
 -145.00   355.00     -20.77    2.12    2.14    0.00000    85.90  LINEAR    4.52990E+00   -92.93    6.32080E+01   -92.93
 -140.00   355.00     -21.35    2.12    2.14    0.00000    86.17  LINEAR    4.23554E+00   -92.93    6.31980E+01   -92.93
 -135.00   355.00     -22.05    2.12    2.14    0.00000    86.46  LINEAR    3.90903E+00   -92.93    6.31876E+01   -92.93
 -130.00   355.00     -22.88    2.12    2.13    0.00000    86.78  LINEAR    3.55288E+00   -92.93    6.31773E+01   -92.93
 -125.00   355.00     -23.87    2.12    2.13    0.00000    87.13  LINEAR    3.16983E+00   -92.93    6.31673E+01   -92.93
 -120.00   355.00     -25.07    2.12    2.12    0.00000    87.50  LINEAR    2.76280E+00   -92.93    6.31579E+01   -92.93
 -115.00   355.00     -26.53    2.11    2.12    0.00000    87.88  LINEAR    2.33491E+00   -92.93    6.31494E+01   -92.93
 -110.00   355.00     -28.37    2.11    2.12    0.00000    88.29  LINEAR    1.88939E+00   -92.93    6.31421E+01   -92.93
 -105.00   355.00     -30.79    2.11    2.11    0.00000    88.70  LINEAR    1.42964E+00   -92.93    6.31361E+01   -92.93
 -100.00   355.00     -34.26    2.11    2.11    0.00000    89.13  LINEAR    9.59113E-01   -92.93    6.31318E+01   -92.93
  -95.00   355.00     -40.24    2.11    2.11    0.00000    89.56  LINEAR    4.81368E-01   -92.93    6.31291E+01   -92.93
  -90.00   355.00    -999.99    2.11    2.11    0.00000    90.00  LINEAR    2.81861E-11   -92.93    6.31282E+01   -92.93
  -85.00   355.00     -40.24    2.11    2.11    0.00000   -89.56  LINEAR    4.81368E-01    87.07    6.31291E+01   -92.93
  -80.00   355.00     -34.26    2.11    2.11    0.00000   -89.13  LINEAR    9.59113E-01    87.07    6.31318E+01   -92.93
  -75.00   355.00     -30.79    2.11    2.11    0.00000   -88.70  LINEAR    1.42964E+00    87.07    6.31361E+01   -92.93
  -70.00   355.00     -28.37    2.11    2.12    0.00000   -88.29  LINEAR    1.88939E+00    87.07    6.31421E+01   -92.93
  -65.00   355.00     -26.53    2.11    2.12    0.00000   -87.88  LINEAR    2.33491E+00    87.07    6.31494E+01   -92.93
  -60.00   355.00     -25.07    2.12    2.12    0.00000   -87.50  LINEAR    2.76280E+00    87.07    6.31579E+01   -92.93
  -55.00   355.00     -23.87    2.12    2.13    0.00000   -87.13  LINEAR    3.16983E+00    87.07    6.31673E+01   -92.93
  -50.00   355.00     -22.88    2.12    2.13    0.00000   -86.78  LINEAR    3.55288E+00    87.07    6.31773E+01   -92.93
  -45.00   355.00     -22.05    2.12    2.14    0.00000   -86.46  LINEAR    3.90903E+00    87.07    6.31876E+01   -92.93
  -40.00   355.00     -21.35    2.12    2.14    0.00000   -86.17  LINEAR    4.23554E+00    87.07    6.31980E+01   -92.93
  -35.00   355.00     -20.77    2.12    2.14    0.00000   -85.90  LINEAR    4.52990E+00    87.07    6.32080E+01   -92.93
  -30.00   355.00     -20.29    2.12    2.15    0.00000   -85.67  LINEAR    4.78982E+00    87.07    6.32174E+01   -92.93
  -25.00   355.00     -19.89    2.12    2.15    0.00000   -85.47  LINEAR    5.01329E+00    87.07    6.32259E+01   -92.93
  -20.00   355.00     -19.58    2.13    2.16    0.00000   -85.30  LINEAR    5.19856E+00    87.07    6.32332E+01   -92.93
  -15.00   355.00     -19.34    2.13    2.16    0.00000   -85.17  LINEAR    5.34419E+00    87.07    6.32392E+01   -92.93
  -10.00   355.00     -19.17    2.13    2.16    0.00000   -85.08  LINEAR    5.44903E+00    87.07    6.32435E+01   -92.93
   -5.00   355.00     -19.07    2.13    2.16    0.00000   -85.02  LINEAR    5.51227E+00    87.07    6.32462E+01   -92.93
    0.00   355.00     -19.03    2.13    2.16    0.00000   -85.00  LINEAR    5.53341E+00    87.07    6.32471E+01   -92.93
 -180.00   360.00    -157.27    2.16    2.16    0.00000   -90.00  LINEAR    6.78146E-07    28.84    6.34887E+01   -92.93
 -175.00   360.00    -157.32    2.16    2.16    0.00000    90.00  LINEAR    6.73600E-07   -88.23    6.34887E+01   -92.93
 -170.00   360.00    -157.41    2.16    2.16    0.00000    90.00  LINEAR    6.67162E-07   177.47    6.34887E+01   -92.93
 -165.00   360.00    -157.57    2.16    2.16    0.00000   -90.00  LINEAR    6.54805E-07   157.22    6.34887E+01   -92.93
 -160.00   360.00    -157.80    2.16    2.16    0.00000   -90.00  LINEAR    6.37681E-07    58.85    6.34887E+01   -92.93
 -155.00   360.00    -158.15    2.16    2.16    0.00000    90.00  LINEAR    6.12866E-07  -109.64    6.34887E+01   -92.93
 -150.00   360.00    -158.53    2.16    2.16    0.00000    90.00  LINEAR    5.86518E-07  -173.58    6.34887E+01   -92.93
 -145.00   360.00    -159.02    2.16    2.16    0.00000    90.00  LINEAR    5.54302E-07  -145.60    6.34887E+01   -92.93
 -140.00   360.00    -159.58    2.16    2.16    0.00000   -90.00  LINEAR    5.19528E-07   142.70    6.34887E+01   -92.93
 -135.00   360.00    -160.29    2.16    2.16    0.00000    90.00  LINEAR    4.78635E-07   -29.06    6.34887E+01   -92.93
 -130.00   360.00    -161.13    2.16    2.16    0.00000    90.00  LINEAR    4.34639E-07  -100.13    6.34887E+01   -92.93
 -125.00   360.00    -162.11    2.16    2.16    0.00000    90.00  LINEAR    3.88425E-07   -14.69    6.34887E+01   -92.93
 -120.00   360.00    -163.29    2.16    2.16    0.00000   -90.00  LINEAR    3.39034E-07   149.28    6.34887E+01   -92.93
 -115.00   360.00    -164.76    2.16    2.16    0.00000    90.00  LINEAR    2.86126E-07  -163.55    6.34887E+01   -92.93
 -110.00   360.00    -166.60    2.16    2.16    0.00000    90.00  LINEAR    2.31625E-07  -172.41    6.34887E+01   -92.93
 -105.00   360.00    -169.00    2.16    2.16    0.00000   -90.00  LINEAR    1.75672E-07    96.46    6.34887E+01   -92.93
 -100.00   360.00    -172.48    2.16    2.16    0.00000    90.00  LINEAR    1.17606E-07  -174.11    6.34887E+01   -92.93
  -95.00   360.00    -178.48    2.16    2.16    0.00000    90.00  LINEAR    5.89569E-08   -54.03    6.34887E+01   -92.93
  -90.00   360.00    -999.99    2.16    2.16    0.00000    90.00  LINEAR    3.45077E-18   -89.99    6.34887E+01   -92.93
  -85.00   360.00    -178.48    2.16    2.16    0.00000   -90.00  LINEAR    5.89501E-08    54.03    6.34887E+01   -92.93
  -80.00   360.00    -172.48    2.16    2.16    0.00000   -90.00  LINEAR    1.17629E-07   174.11    6.34887E+01   -92.93
  -75.00   360.00    -169.00    2.16    2.16    0.00000    90.00  LINEAR    1.75675E-07   -96.48    6.34887E+01   -92.93
  -70.00   360.00    -166.60    2.16    2.16    0.00000   -90.00  LINEAR    2.31670E-07   172.41    6.34887E+01   -92.93
  -65.00   360.00    -164.76    2.16    2.16    0.00000   -90.00  LINEAR    2.86180E-07   163.55    6.34887E+01   -92.93
  -60.00   360.00    -163.29    2.16    2.16    0.00000    90.00  LINEAR    3.39091E-07  -149.28    6.34887E+01   -92.93
  -55.00   360.00    -162.11    2.16    2.16    0.00000   -90.00  LINEAR    3.88352E-07    14.69    6.34887E+01   -92.93
  -50.00   360.00    -161.13    2.16    2.16    0.00000   -90.00  LINEAR    4.34654E-07   100.14    6.34887E+01   -92.93
  -45.00   360.00    -160.29    2.16    2.16    0.00000   -90.00  LINEAR    4.78553E-07    29.07    6.34887E+01   -92.93
  -40.00   360.00    -159.58    2.16    2.16    0.00000    90.00  LINEAR    5.19608E-07  -142.71    6.34887E+01   -92.93
  -35.00   360.00    -159.02    2.16    2.16    0.00000   -90.00  LINEAR    5.54391E-07   145.60    6.34887E+01   -92.93
  -30.00   360.00    -158.53    2.16    2.16    0.00000   -90.00  LINEAR    5.86632E-07   173.58    6.34887E+01   -92.93
  -25.00   360.00    -158.15    2.16    2.16    0.00000   -90.00  LINEAR    6.12907E-07   109.65    6.34887E+01   -92.93
  -20.00   360.00    -157.80    2.16    2.16    0.00000    90.00  LINEAR    6.37617E-07   -58.86    6.34887E+01   -92.93
  -15.00   360.00    -157.57    2.16    2.16    0.00000    90.00  LINEAR    6.54923E-07  -157.22    6.34887E+01   -92.93
  -10.00   360.00    -157.41    2.16    2.16    0.00000    90.00  LINEAR    6.67293E-07  -177.47    6.34887E+01   -92.93
   -5.00   360.00    -157.32    2.16    2.16    0.00000   -90.00  LINEAR    6.73596E-07    88.24    6.34887E+01   -92.93
    0.00   360.00    -157.27    2.16    2.16    0.00000    90.00  LINEAR    6.78030E-07   -28.84    6.34887E+01   -92.93


   AVERAGE POWER GAIN= 9.97285E-01       SOLID ANGLE USED IN AVERAGING=( 4.0000)*PI STERADIANS.








 ***** DATA CARD NO.  6   EN   0    37    73  1003 -1.80000E+02  0.00000E+00  5.00000E+00  5.00000E+00  0.00000E+00  0.00000E+00

 RUN TIME =     0.063
